<?xml version="1.0" encoding="UTF-8"?>

<!-- 

-->

<additional xmlns:xsi="http://www.w3.org/2001/XMLSchema-instance" xsi:noNamespaceSchemaLocation="http://sumo.dlr.de/xsd/additional_file.xsd">
    <tlLogic id="267_Mech_Itam" type="static" programID="1" offset="0">
        <phase duration="30" state="rGGrrrrrrrrrrGGG"/>
        <phase duration="3"  state="rGyrrrrrrrrrrrrr"/>
        <phase duration="10" state="rGrrrGGrrrrrrrrr"/>
        <phase duration="3"  state="ryrrryyrrrrrrrrr"/>
        <phase duration="26" state="rrrGGrrGGrrGGrrr"/>
        <phase duration="3"  state="rrryyrryyrrGGrrr"/>
        <phase duration="12" state="rrrrrrrrrGGGGrrr"/>
        <phase duration="3"  state="rrrrrrrrryyrrrrr"/>
    </tlLogic>
</additional>
