<?xml version="1.0" encoding="UTF-8"?>

<!-- generated on 2026-06-25 09:27:00 by Eclipse SUMO netedit Version 1.18.0
-->

<routes xmlns:xsi="http://www.w3.org/2001/XMLSchema-instance" xsi:noNamespaceSchemaLocation="http://sumo.dlr.de/xsd/routes_file.xsd">
    <!-- VTypes -->
    <vType id="car_type" length="5.00" minGap="0.50" maxSpeed="30.00" guiShape="passenger" accel="4.6" decel="4.5" sigma="0.1"/>
    <!-- Vehicles, persons and containers (sorted by depart) -->
    <flow id="f_0" type="car_type" begin="0.00" from="E6" to="-E0" end="100" vehsPerHour="200.00"/>
    <flow id="f_1" type="car_type" begin="0.00" from="E0" to="-E6" end="100" vehsPerHour="200.00"/>
    <flow id="f_2" type="car_type" begin="0.00" from="E6" to="E5" end="100" vehsPerHour="200.00"/>
    <flow id="f_3" type="car_type" begin="0.00" from="E0" to="E5" end="100" vehsPerHour="200.00"/>
    <flow id="f_4" type="car_type" begin="0.00" from="-E5" to="-E0" end="100" vehsPerHour="200.00"/>
    <flow id="f_5" type="car_type" begin="0.00" from="-E5" to="-E6" end="100" vehsPerHour="200.00"/>
</routes>
