<?xml version="1.0" encoding="UTF-8"?>

<!-- generated on 2025-01-20 14:53:12 by Eclipse SUMO netedit Version 1.20.0
<configuration xmlns:xsi="http://www.w3.org/2001/XMLSchema-instance" xsi:noNamespaceSchemaLocation="http://sumo.dlr.de/xsd/neteditConfiguration.xsd">

    <input>
        <sumo-net-file value="C:\DEVE\clockwork_tc\models\JS_266-267\net\JS_266-267H.net.xml"/>
    </input>

    <output>
        <output-file value="C:\DEVE\clockwork_tc\models\JS_266-267\net\JS_266-267H.net.xml"/>
        <output.street-names value="true"/>
    </output>

    <processing>
        <geometry.min-radius.fix.railways value="false"/>
        <geometry.max-grade.fix value="false"/>
        <offset.disable-normalization value="true"/>
        <lefthand value="0"/>
    </processing>

    <junctions>
        <no-internal-links value="false"/>
        <no-turnarounds value="true"/>
        <junctions.corner-detail value="8"/>
        <junctions.internal-link-detail value="8"/>
        <junctions.limit-turn-speed value="5.50"/>
        <rectangular-lane-cut value="0"/>
    </junctions>

    <pedestrian>
        <walkingareas value="1"/>
    </pedestrian>

</configuration>
-->

<net version="1.20" junctionCornerDetail="8" junctionLinkDetail="8" walkingareas="true" limitTurnSpeed="5.50" xmlns:xsi="http://www.w3.org/2001/XMLSchema-instance" xsi:noNamespaceSchemaLocation="http://sumo.dlr.de/xsd/net_file.xsd">

    <location netOffset="-380370.77,-6669419.92" convBoundary="3954.74,1863.54,4455.92,2392.31" origBoundary="24.684576,59.443955,29.646314,60.189319" projParameter="+proj=utm +zone=35 +ellps=WGS84 +datum=WGS84 +units=m +no_defs"/>

    <type id="cycleway.track|highway.cycleway" priority="1" numLanes="1" speed="13.89" allow="bicycle" oneway="1" width="3.20" bikeLaneWidth="-1.00"/>
    <type id="highway.cycleway" priority="1" numLanes="1" speed="8.33" allow="bicycle" oneway="1" width="1.00"/>
    <type id="highway.footway" priority="1" numLanes="1" speed="2.78" allow="pedestrian" oneway="1" width="2.00"/>
    <type id="highway.path" priority="1" numLanes="1" speed="2.78" allow="pedestrian bicycle" oneway="1" width="2.00"/>
    <type id="highway.pedestrian" priority="1" numLanes="1" speed="2.78" allow="pedestrian" oneway="1" width="2.00"/>
    <type id="highway.primary" priority="12" numLanes="2" speed="27.78" disallow="pedestrian tram rail_urban rail rail_electric rail_fast ship" oneway="1" sidewalkWidth="-1.00"/>
    <type id="highway.residential" priority="3" numLanes="1" speed="13.89" disallow="pedestrian tram rail_urban rail rail_electric rail_fast ship" oneway="1" sidewalkWidth="-1.00"/>
    <type id="highway.secondary" priority="11" numLanes="1" speed="27.78" disallow="pedestrian tram rail_urban rail rail_electric rail_fast ship" oneway="1" sidewalkWidth="-1.00"/>
    <type id="highway.service" priority="1" numLanes="1" speed="5.56" allow="pedestrian delivery bicycle" oneway="1"/>
    <type id="highway.steps" priority="1" numLanes="1" speed="1.39" allow="pedestrian" oneway="1" width="2.00"/>
    <type id="highway.tertiary" priority="10" numLanes="1" speed="22.22" disallow="pedestrian tram rail_urban rail rail_electric rail_fast ship" oneway="1" sidewalkWidth="-1.00"/>
    <type id="railway.tram" priority="17" numLanes="1" speed="13.89" allow="tram" oneway="1"/>

    <edge id=":1011525766_w0" function="walkingarea">
        <lane id=":1011525766_w0_0" index="0" allow="pedestrian" speed="2.78" length="0.55" width="2.00" shape="4344.68,2164.66,1.00 4342.70,2164.42,1.00 4343.89,2166.03,1.00 4344.17,2165.78,1.00 4344.29,2165.65,1.00 4344.39,2165.50,1.00 4344.48,2165.35,1.00 4344.55,2165.19,1.00 4344.61,2165.02,1.00 4344.65,2164.84,1.00"/>
    </edge>
    <edge id=":1372388327_w0" function="walkingarea">
        <lane id=":1372388327_w0_0" index="0" allow="pedestrian" speed="2.78" length="1.54" width="2.00" shape="4343.26,2166.50,0.09 4342.07,2164.89,0.09 4340.08,2165.11,0.09 4340.37,2166.38,0.09 4340.60,2166.81,0.09 4340.89,2167.10,0.09 4341.25,2167.25,0.09 4341.66,2167.27,0.09 4342.13,2167.15,0.09 4342.67,2166.89,0.09"/>
    </edge>
    <edge id=":1405825503_w0" function="walkingarea">
        <lane id=":1405825503_w0_0" index="0" allow="pedestrian" speed="2.78" length="3.40" width="2.00" shape="4340.31,2167.27,0.08 4342.30,2167.06,0.08 4343.66,2165.39,0.08 4343.42,2163.40,0.08 4342.82,2163.40,0.08 4342.57,2163.33,0.08 4342.36,2163.23,0.08 4342.18,2163.08,0.08 4342.03,2162.89,0.08 4341.91,2162.67,0.08 4341.83,2162.40,0.08 4341.78,2162.09,0.08 4339.79,2162.29,0.08"/>
    </edge>
    <edge id=":1783126212_w0" function="walkingarea">
        <lane id=":1783126212_w0_0" index="0" allow="pedestrian" speed="2.78" length="3.52" width="2.00" shape="4365.23,2158.52,0.19 4363.27,2158.94,0.19 4363.33,2159.53,0.19 4363.29,2159.78,0.19 4363.20,2160.00,0.19 4363.07,2160.19,0.19 4362.90,2160.35,0.19 4362.68,2160.48,0.19 4362.42,2160.58,0.19 4362.11,2160.65,0.19 4362.44,2162.62,0.19 4363.80,2162.22,0.19 4364.33,2161.91,0.19 4364.74,2161.52,0.19 4365.05,2161.07,0.19 4365.26,2160.54,0.19 4365.35,2159.94,0.19 4365.34,2159.26,0.19"/>
    </edge>
    <edge id=":1783126215_0" function="internal">
        <lane id=":1783126215_0_0" index="0" allow="bicycle" speed="2.05" length="1.47" width="1.00" shape="4350.77,2160.89,0.12 4350.68,2161.16,0.12 4350.57,2161.35,0.12 4350.45,2161.46,0.12 4350.31,2161.49,0.12 4350.15,2161.44,0.12 4349.98,2161.31,0.12 4349.79,2161.10,0.12"/>
    </edge>
    <edge id=":1783126215_w0" function="walkingarea">
        <lane id=":1783126215_w0_0" index="0" allow="pedestrian" speed="2.78" length="5.05" width="2.00" shape="4348.12,2162.84,0.11 4348.35,2164.83,0.11 4353.40,2164.12,0.13 4353.07,2162.14,0.13"/>
    </edge>
    <edge id=":258546857_0" function="internal">
        <lane id=":258546857_0_0" index="0" disallow="pedestrian tram rail_urban rail rail_electric rail_fast ship cable_car subway" speed="11.11" length="8.69" shape="4263.33,2236.72 4263.23,2235.13 4262.81,2233.96 4262.19,2233.04 4261.52,2232.21 4260.91,2231.30 4260.49,2230.13 4260.39,2228.54"/>
        <lane id=":258546857_0_1" index="1" disallow="pedestrian tram rail_urban rail rail_electric rail_fast ship cable_car subway" speed="11.11" length="8.69" shape="4266.53,2236.88 4266.42,2235.29 4266.00,2234.12 4265.39,2233.21 4264.72,2232.38 4264.11,2231.47 4263.69,2230.30 4263.59,2228.71"/>
        <lane id=":258546857_0_2" index="2" disallow="pedestrian tram rail_urban rail rail_electric rail_fast ship cable_car subway" speed="11.11" length="8.69" shape="4269.73,2237.04 4269.62,2235.45 4269.20,2234.29 4268.59,2233.38 4267.91,2232.55 4267.30,2231.64 4266.88,2230.47 4266.78,2228.88"/>
        <lane id=":258546857_0_3" index="3" disallow="pedestrian rail_urban rail rail_electric rail_fast ship cable_car subway" speed="11.11" length="8.69" shape="4269.73,2237.04 4269.98,2229.06"/>
    </edge>
    <edge id=":258565436_0" function="internal">
        <lane id=":258565436_0_0" index="0" disallow="pedestrian tram rail_urban rail rail_electric rail_fast ship cable_car subway" speed="11.11" length="8.56" shape="4270.78,2346.34 4270.87,2347.93 4271.26,2349.10 4271.84,2350.03 4272.47,2350.87 4273.04,2351.79 4273.42,2352.97 4273.48,2354.55"/>
        <lane id=":258565436_0_1" index="1" disallow="pedestrian tram rail_urban rail rail_electric rail_fast ship cable_car subway" speed="11.11" length="8.56" shape="4267.58,2346.15 4267.67,2347.73 4268.07,2348.90 4268.64,2349.82 4269.28,2350.66 4269.85,2351.58 4270.22,2352.75 4270.29,2354.32"/>
        <lane id=":258565436_0_2" index="2" disallow="pedestrian rail_urban rail rail_electric rail_fast ship cable_car subway" speed="11.11" length="8.56" shape="4267.58,2346.15 4267.10,2354.09"/>
    </edge>
    <edge id=":267_Mech_Itam_0" function="internal">
        <lane id=":267_Mech_Itam_0_0" index="0" allow="tram" speed="11.11" length="23.17" shape="4259.18,2039.30,0.04 4256.76,2036.46,0.02 4254.23,2034.04,-0.00 4251.57,2032.03,-0.02 4248.79,2030.44,-0.04 4245.89,2029.26,-0.05 4242.87,2028.50,-0.07 4239.73,2028.15,-0.09"/>
    </edge>
    <edge id=":267_Mech_Itam_1" function="internal">
        <lane id=":267_Mech_Itam_1_0" index="0" allow="tram" speed="11.11" length="40.66" shape="4280.37,2029.54,0.04 4239.73,2028.15,-0.09"/>
    </edge>
    <edge id=":267_Mech_Itam_2" function="internal">
        <lane id=":267_Mech_Itam_2_0" index="0" allow="bicycle" speed="8.33" length="31.10" width="1.00" shape="4282.09,2010.63,0.04 4251.00,2010.00,-0.06"/>
    </edge>
    <edge id=":267_Mech_Itam_3" function="internal">
        <lane id=":267_Mech_Itam_3_0" index="0" disallow="pedestrian tram rail_urban rail rail_electric rail_fast ship cable_car subway" speed="11.11" length="27.76" shape="4280.40,2006.16,0.06 4279.54,2011.26,0.06 4278.92,2015.17,0.05 4278.49,2018.38,0.05 4278.21,2021.35,0.05 4278.01,2024.58,0.05 4277.86,2028.54,0.04 4277.70,2033.71,0.04"/>
        <lane id=":267_Mech_Itam_3_1" index="1" disallow="pedestrian tram rail_urban rail rail_electric rail_fast ship cable_car subway" speed="11.11" length="27.76" shape="4277.16,2006.12,0.06 4276.30,2011.23,0.06 4275.69,2015.15,0.05 4275.27,2018.36,0.05 4274.99,2021.35,0.05 4274.80,2024.59,0.05 4274.66,2028.56,0.04 4274.50,2033.74,0.04"/>
        <lane id=":267_Mech_Itam_3_2" index="2" disallow="pedestrian tram rail_urban rail rail_electric rail_fast ship cable_car subway" speed="11.11" length="27.76" shape="4273.92,2006.07,0.06 4273.06,2011.18,0.06 4272.46,2015.10,0.05 4272.04,2018.31,0.05 4271.78,2021.30,0.05 4271.60,2024.53,0.05 4271.46,2028.50,0.04 4271.30,2033.67,0.04"/>
    </edge>
    <edge id=":267_Mech_Itam_6" function="internal">
        <lane id=":267_Mech_Itam_6_0" index="0" disallow="pedestrian bicycle tram rail_urban rail rail_electric rail_fast ship cable_car subway" speed="9.72" length="17.93" shape="4270.68,2006.03,0.06 4268.89,2014.34,0.02 4266.57,2021.29,-0.01 4265.62,2023.16,-0.02"/>
    </edge>
    <edge id=":267_Mech_Itam_7" function="internal">
        <lane id=":267_Mech_Itam_7_0" index="0" allow="bus" speed="9.72" length="19.81" shape="4270.68,2006.03,0.06 4269.08,2012.18,0.04 4266.53,2017.34,0.02 4263.05,2021.50,-0.00 4261.21,2022.82,-0.01"/>
    </edge>
    <edge id=":267_Mech_Itam_22" function="internal">
        <lane id=":267_Mech_Itam_22_0" index="0" disallow="pedestrian bicycle tram rail_urban rail rail_electric rail_fast ship cable_car subway" speed="9.72" length="24.01" shape="4265.62,2023.16,-0.02 4263.74,2026.89,-0.04 4260.38,2031.12,-0.07 4256.49,2034.00,-0.09 4252.09,2035.53,-0.11 4247.16,2035.69,-0.13"/>
    </edge>
    <edge id=":267_Mech_Itam_23" function="internal">
        <lane id=":267_Mech_Itam_23_0" index="0" allow="bus" speed="9.72" length="22.59" shape="4261.21,2022.82,-0.01 4258.63,2024.66,-0.02 4253.27,2026.82,-0.04 4246.97,2027.99,-0.06 4239.73,2028.15,-0.09"/>
    </edge>
    <edge id=":267_Mech_Itam_8" function="internal">
        <lane id=":267_Mech_Itam_8_0" index="0" allow="bicycle" speed="8.33" length="31.03" width="1.00" shape="4251.17,2008.51,-0.06 4282.19,2009.64,0.04"/>
    </edge>
    <edge id=":267_Mech_Itam_9" function="internal">
        <lane id=":267_Mech_Itam_9_0" index="0" disallow="pedestrian bicycle tram rail_urban rail rail_electric rail_fast ship cable_car subway" speed="7.37" length="8.56" shape="4248.56,2014.41,0.00 4249.35,2014.26,0.01 4250.11,2013.75,0.02 4250.82,2012.88,0.03 4251.49,2011.65,0.05 4252.11,2010.05,0.07 4252.70,2008.10,0.09 4252.82,2007.54,0.10"/>
        <lane id=":267_Mech_Itam_9_1" index="1" disallow="pedestrian bicycle tram rail_urban rail rail_electric rail_fast ship cable_car subway" speed="8.14" length="10.82" shape="4248.56,2014.41,0.00 4250.21,2014.29,0.02 4251.70,2013.80,0.03 4253.00,2012.95,0.05 4254.14,2011.72,0.06 4255.10,2010.13,0.08 4255.88,2008.16,0.10 4255.98,2007.79,0.11"/>
    </edge>
    <edge id=":267_Mech_Itam_11" function="internal">
        <lane id=":267_Mech_Itam_11_0" index="0" disallow="pedestrian bicycle tram rail_urban rail rail_electric rail_fast ship cable_car subway" speed="9.72" length="1.32" shape="4248.38,2017.60,0.00 4249.70,2017.71,0.01"/>
        <lane id=":267_Mech_Itam_11_1" index="1" disallow="pedestrian bicycle tram rail_urban rail rail_electric rail_fast ship cable_car subway" speed="9.72" length="1.33" shape="4248.38,2017.60,0.00 4249.70,2017.72,0.01"/>
    </edge>
    <edge id=":267_Mech_Itam_24" function="internal">
        <lane id=":267_Mech_Itam_24_0" index="0" disallow="pedestrian bicycle tram rail_urban rail rail_electric rail_fast ship cable_car subway" speed="7.37" length="1.81" shape="4252.82,2007.54,0.10 4253.24,2005.78,0.11"/>
    </edge>
    <edge id=":267_Mech_Itam_25" function="internal">
        <lane id=":267_Mech_Itam_25_0" index="0" disallow="pedestrian bicycle tram rail_urban rail rail_electric rail_fast ship cable_car subway" speed="8.14" length="2.02" shape="4255.98,2007.79,0.11 4256.50,2005.83,0.12"/>
    </edge>
    <edge id=":267_Mech_Itam_26" function="internal">
        <lane id=":267_Mech_Itam_26_0" index="0" disallow="pedestrian bicycle tram rail_urban rail rail_electric rail_fast ship cable_car subway" speed="9.72" length="33.04" shape="4249.70,2017.71,0.01 4255.42,2018.18,0.01 4261.36,2019.34,0.02 4266.20,2021.07,0.02 4269.93,2023.37,0.03 4272.56,2026.25,0.03 4274.08,2029.71,0.04 4274.50,2033.74,0.04"/>
    </edge>
    <edge id=":267_Mech_Itam_27" function="internal">
        <lane id=":267_Mech_Itam_27_0" index="0" disallow="pedestrian bicycle tram rail_urban rail rail_electric rail_fast ship cable_car subway" speed="9.72" length="30.26" shape="4249.70,2017.72,0.01 4254.57,2018.15,0.01 4259.80,2019.28,0.02 4264.04,2021.00,0.02 4267.32,2023.29,0.03 4269.62,2026.17,0.03 4270.94,2029.63,0.04 4271.30,2033.67,0.04"/>
    </edge>
    <edge id=":267_Mech_Itam_13" function="internal">
        <lane id=":267_Mech_Itam_13_0" index="0" allow="bicycle" speed="8.33" length="9.57" width="1.00" shape="4246.57,2021.82,0.06 4246.01,2031.37,0.03"/>
    </edge>
    <edge id=":267_Mech_Itam_14" function="internal">
        <lane id=":267_Mech_Itam_14_0" index="0" allow="bus" speed="9.72" length="22.58" shape="4239.89,2023.89,-0.09 4242.48,2023.62,-0.07 4244.85,2022.57,-0.05 4246.99,2020.76,-0.02 4248.90,2018.17,0.00 4250.57,2014.81,0.04 4252.02,2010.68,0.07 4252.80,2007.54,0.10"/>
    </edge>
    <edge id=":267_Mech_Itam_15" function="internal">
        <lane id=":267_Mech_Itam_15_0" index="0" allow="tram" speed="11.11" length="40.88" shape="4239.89,2023.89,-0.09 4280.74,2025.53,0.05"/>
    </edge>
    <edge id=":267_Mech_Itam_16" function="internal">
        <lane id=":267_Mech_Itam_16_0" index="0" allow="tram" speed="11.11" length="31.03" shape="4239.89,2023.89,-0.09 4245.40,2024.42,-0.07 4250.21,2025.52,-0.04 4254.33,2027.19,-0.02 4257.75,2029.43,-0.01 4260.48,2032.24,0.01 4262.50,2035.62,0.03 4263.83,2039.57,0.05"/>
    </edge>
    <edge id=":267_Mech_Itam_28" function="internal">
        <lane id=":267_Mech_Itam_28_0" index="0" allow="bus" speed="9.72" length="1.81" shape="4252.80,2007.54,0.10 4253.24,2005.78,0.11"/>
    </edge>
    <edge id=":267_Mech_Itam_17" function="internal">
        <lane id=":267_Mech_Itam_17_0" index="0" allow="bicycle" speed="8.33" length="9.54" width="1.00" shape="4245.01,2031.30,0.03 4245.57,2021.78,0.06"/>
    </edge>
    <edge id=":267_Mech_Itam_18" function="internal">
        <lane id=":267_Mech_Itam_18_0" index="0" disallow="pedestrian bicycle tram rail_urban rail rail_electric rail_fast ship cable_car subway" speed="5.99" length="7.43" shape="4249.64,2041.91,0.05 4249.71,2040.33,0.02 4249.65,2038.99,-0.02 4249.44,2037.87,-0.05 4249.08,2036.98,-0.07 4248.59,2036.32,-0.09 4247.95,2035.89,-0.11 4247.16,2035.69,-0.13"/>
    </edge>
    <edge id=":267_Mech_Itam_19" function="internal">
        <lane id=":267_Mech_Itam_19_0" index="0" disallow="pedestrian bicycle tram rail_urban rail rail_electric rail_fast ship cable_car subway" speed="11.11" length="36.52" shape="4249.64,2041.91,0.05 4250.09,2035.98,0.06 4250.39,2030.78,0.07 4250.64,2026.04,0.08 4250.95,2021.46,0.09 4251.42,2016.75,0.10 4252.14,2011.63,0.10 4253.24,2005.78,0.11"/>
        <lane id=":267_Mech_Itam_19_1" index="1" disallow="pedestrian bicycle tram rail_urban rail rail_electric rail_fast ship cable_car subway" speed="11.11" length="36.52" shape="4252.83,2042.12,0.05 4253.29,2036.18,0.07 4253.60,2030.96,0.08 4253.86,2026.19,0.08 4254.18,2021.57,0.09 4254.66,2016.83,0.10 4255.40,2011.68,0.11 4256.50,2005.83,0.12"/>
        <lane id=":267_Mech_Itam_19_2" index="2" disallow="pedestrian bicycle tram rail_urban rail rail_electric rail_fast ship cable_car subway" speed="11.11" length="36.52" shape="4256.02,2042.34,0.05 4256.49,2036.38,0.07 4256.81,2031.14,0.08 4257.08,2026.34,0.09 4257.42,2021.69,0.10 4257.91,2016.91,0.11 4258.65,2011.73,0.12 4259.76,2005.87,0.13"/>
    </edge>
    <edge id=":267_Mech_Itam_c0" function="crossing" crossingEdges="Mech02">
        <lane id=":267_Mech_Itam_c0_0" index="0" allow="pedestrian" speed="2.78" length="12.89" width="2.00" shape="4268.93,2006.74,0.06 4281.80,2007.42,0.06" outlineShape="4268.99,2005.74,0.06 4281.86,2006.42,0.06 4281.90,2006.78,0.06 4281.82,2007.17,0.06 4281.74,2007.56,0.05 4281.67,2007.95,0.05 4281.64,2008.32,0.05 4268.88,2007.74,0.06 4268.89,2005.75,0.06 4268.88,2007.74,0.06"/>
    </edge>
    <edge id=":267_Mech_Itam_c1" function="crossing" crossingEdges="-Mech01">
        <lane id=":267_Mech_Itam_c1_0" index="0" allow="pedestrian" speed="2.78" length="9.68" width="2.00" shape="4251.47,2006.44,0.10 4261.12,2007.18,0.12" outlineShape="4251.44,2005.43,0.10 4261.19,2006.18,0.12 4261.04,2008.18,0.12 4261.19,2006.18,0.12 4261.04,2008.18,0.12 4251.84,2007.47,0.10 4251.84,2007.49,-0.01 4251.84,2007.38,0.00 4251.79,2007.06,0.02 4251.72,2006.70,0.04 4251.65,2006.30,0.06 4251.63,2005.88,0.09 4251.54,2005.44,0.10"/>
    </edge>
    <edge id=":267_Mech_Itam_c2" function="crossing" crossingEdges="-Itam_RB13 Itam_RB13">
        <lane id=":267_Mech_Itam_c2_0" index="0" allow="pedestrian" speed="2.78" length="7.47" width="2.00" shape="4240.66,2029.79,-0.08 4240.95,2022.33,-0.09" outlineShape="4239.66,2029.75,-0.08 4239.95,2022.29,-0.09 4240.80,2022.39,-0.07 4241.61,2022.56,-0.05 4241.94,2022.65,-0.04 4241.67,2029.67,-0.08 4239.66,2029.75,-0.09 4239.58,2031.75,-0.09 4242.51,2031.16,0.03 4244.51,2031.24,0.03 4244.45,2030.57,0.01 4244.23,2030.08,0.00 4243.86,2029.78,-0.01 4243.36,2029.64,-0.02 4242.76,2029.60,-0.03 4242.07,2029.63,-0.04 4241.67,2029.67,-0.05"/>
    </edge>
    <edge id=":267_Mech_Itam_w0" function="walkingarea">
        <lane id=":267_Mech_Itam_w0_0" index="0" allow="pedestrian" speed="2.78" length="0.68" width="2.00" shape="4282.31,2008.86,0.04 4282.33,2006.86,0.04 4281.86,2006.42,0.06 4281.90,2006.78,0.06 4281.82,2007.17,0.06 4281.74,2007.56,0.05 4281.67,2007.95,0.05 4281.64,2008.32,0.05 4281.66,2008.64,0.05 4281.75,2008.90,0.04 4281.93,2009.07,0.04"/>
    </edge>
    <edge id=":267_Mech_Itam_w1" function="walkingarea">
        <lane id=":267_Mech_Itam_w1_0" index="0" allow="pedestrian" speed="2.78" length="0.59" width="2.00" shape="4251.54,2005.44,0.10 4251.38,2006.02,-0.06 4251.31,2008.01,-0.06 4251.54,2007.98,-0.04 4251.75,2007.85,-0.03 4251.83,2007.65,-0.02 4251.84,2007.38,0.00 4251.79,2007.06,0.02 4251.72,2006.70,0.04 4251.65,2006.30,0.06 4251.63,2005.88,0.09"/>
    </edge>
    <edge id=":267_Mech_Itam_w2" function="walkingarea">
        <lane id=":267_Mech_Itam_w2_0" index="0" allow="pedestrian" speed="2.78" length="4.83" width="2.00" shape="4245.07,2021.81,0.06 4243.07,2021.64,0.06 4243.16,2021.39,0.05 4243.36,2021.17,0.05 4243.69,2020.99,0.04 4244.14,2020.84,0.03 4244.70,2020.73,0.02 4245.39,2020.65,0.00 4246.21,2020.61,-0.01 4247.14,2020.60,-0.03 4248.20,2020.63,-0.06 4248.11,2022.63,-0.06 4239.95,2022.29,-0.09 4240.80,2022.39,-0.07 4241.61,2022.56,-0.05 4242.38,2022.77,-0.03 4243.08,2022.95,-0.01 4243.70,2023.06,0.00 4244.22,2023.05,0.02 4244.64,2022.86,0.03 4244.92,2022.44,0.04"/>
    </edge>
    <edge id=":267_Mech_Itam_w3" function="walkingarea">
        <lane id=":267_Mech_Itam_w3_0" index="0" allow="pedestrian" speed="2.78" length="2.84" width="2.00" shape="4239.66,2029.75,-0.09 4239.58,2031.75,-0.09 4242.51,2031.16,0.03 4244.51,2031.24,0.03 4244.45,2030.57,0.01 4244.23,2030.08,0.00 4243.86,2029.78,-0.01 4243.36,2029.64,-0.02 4242.76,2029.60,-0.03 4242.07,2029.63,-0.04 4241.31,2029.70,-0.06 4240.50,2029.75,-0.07"/>
    </edge>
    <edge id=":267_Mech_Itam_w4" function="walkingarea">
        <lane id=":267_Mech_Itam_w4_0" index="0" allow="pedestrian" speed="2.78" length="7.83" width="2.00" shape="4261.04,2008.18,0.12 4261.19,2006.18,0.12 4268.99,2005.74,0.06 4268.88,2007.74,0.06"/>
    </edge>
    <edge id=":268410428_0" function="internal">
        <lane id=":268410428_0_0" index="0" allow="bicycle" speed="8.33" length="0.31" width="1.00" shape="4199.72,2108.17 4199.41,2108.16,-0.00"/>
    </edge>
    <edge id=":268410428_1" function="internal">
        <lane id=":268410428_1_0" index="0" allow="bicycle" speed="2.05" length="1.47" width="1.00" shape="4199.72,2108.17 4199.48,2108.02 4199.32,2107.88 4199.24,2107.73 4199.24,2107.59 4199.33,2107.45 4199.50,2107.31 4199.75,2107.17"/>
    </edge>
    <edge id=":268410428_2" function="internal">
        <lane id=":268410428_2_0" index="0" allow="bicycle" speed="8.33" length="0.30" width="1.00" shape="4199.45,2107.16,-0.00 4199.75,2107.17"/>
    </edge>
    <edge id=":268410428_w0" function="walkingarea">
        <lane id=":268410428_w0_0" index="0" allow="pedestrian" speed="2.78" length="0.28" width="2.00" shape="4199.76,2106.67 4199.82,2104.68 4199.56,2104.67,-0.00 4199.47,2106.66,-0.00"/>
    </edge>
    <edge id=":268410431_w0" function="walkingarea">
        <lane id=":268410431_w0_0" index="0" allow="pedestrian" speed="2.78" length="0.28" width="1.00" shape="4222.92,2037.00,-0.29 4222.97,2036.00,-0.29 4222.69,2035.99,-0.29 4222.65,2036.98,-0.29"/>
    </edge>
    <edge id=":268413883_0" function="internal">
        <lane id=":268413883_0_0" index="0" allow="bicycle" speed="2.05" length="1.47" width="1.00" shape="4341.70,2161.38,1.00 4341.92,2161.56,1.00 4342.06,2161.72,1.00 4342.12,2161.88,1.00 4342.09,2162.02,1.00 4341.99,2162.15,1.00 4341.81,2162.26,1.00 4341.54,2162.36,1.00"/>
    </edge>
    <edge id=":268413883_w0" function="walkingarea">
        <lane id=":268413883_w0_0" index="0" allow="pedestrian" speed="2.78" length="2.82" width="2.00" shape="4341.46,2162.86,1.00 4341.14,2164.83,1.00 4342.58,2165.39,1.00 4344.57,2165.63,1.00"/>
    </edge>
    <edge id=":297899775_w0" function="walkingarea">
        <lane id=":297899775_w0_0" index="0" allow="pedestrian" speed="2.78" length="0.10" width="2.00" shape="4166.06,2033.99,-0.84 4166.47,2032.03,-0.84 4166.38,2032.01,-0.84 4166.35,2032.00,-0.84 4166.32,2032.00,-0.84 4166.29,2032.00,-0.84 4166.26,2031.99,-0.84 4166.22,2031.99,-0.84 4166.18,2031.99,-0.84 4166.06,2033.99,-0.84"/>
    </edge>
    <edge id=":3589484992_w0" function="walkingarea">
        <lane id=":3589484992_w0_0" index="0" allow="pedestrian" speed="2.78" length="4.66" width="2.00" shape="4255.82,1984.00,0.17 4255.28,1982.07,0.17 4254.74,1982.16,0.17 4254.55,1982.14,0.17 4254.41,1982.08,0.17 4254.33,1981.98,0.17 4254.29,1981.83,0.17 4254.31,1981.64,0.17 4254.38,1981.41,0.17 4254.51,1981.13,0.17 4252.72,1980.23,0.17 4251.99,1981.66,0.17 4251.72,1982.18,0.17 4251.49,1982.65,0.17 4251.28,1983.10,0.17 4251.08,1983.57,0.17 4250.86,1984.12,0.17 4250.61,1984.79,0.17 4250.32,1985.62,0.17 4252.21,1986.28,0.17 4252.56,1985.68,0.17 4252.83,1985.40,0.17 4253.17,1985.13,0.17 4253.57,1984.87,0.17 4254.03,1984.63,0.17 4254.56,1984.41,0.17 4255.16,1984.20,0.17"/>
    </edge>
    <edge id=":6003432227_0" function="internal">
        <lane id=":6003432227_0_0" index="0" allow="tram" speed="13.89" length="5.89" shape="4296.90,2030.28,0.02 4291.01,2030.02,0.02"/>
    </edge>
    <edge id=":6547958199_0" function="internal">
        <lane id=":6547958199_0_0" index="0" allow="bicycle" speed="5.55" length="9.70" width="1.00" shape="4315.60,1957.79,0.01 4313.72,1967.31,0.02"/>
    </edge>
    <edge id=":6547958199_1" function="internal">
        <lane id=":6547958199_1_0" index="0" allow="bicycle" speed="4.56" length="8.45" width="1.00" shape="4314.61,1957.60,0.01 4314.19,1959.55,0.01 4313.79,1960.85,0.01 4313.41,1961.51,0.01 4313.07,1961.52,0.01 4312.74,1960.88,0.01 4312.45,1959.59,0.01 4312.18,1957.66,0.01"/>
    </edge>
    <edge id=":6547958199_2" function="internal">
        <lane id=":6547958199_2_0" index="0" allow="bicycle" speed="8.33" length="9.88" width="1.00" shape="4313.17,1957.54,0.01 4313.43,1959.36,0.01 4313.70,1960.77,0.01 4313.94,1961.92,0.02 4314.11,1962.99,0.02 4314.16,1964.13,0.02 4314.04,1965.52,0.02 4313.72,1967.31,0.02"/>
    </edge>
    <edge id=":6547958199_3" function="internal">
        <lane id=":6547958199_3_0" index="0" allow="bicycle" speed="2.05" length="0.66" width="1.00" shape="4313.17,1957.54,0.01 4313.06,1957.80,0.01 4312.93,1957.98,0.01 4312.80,1958.08,0.01"/>
    </edge>
    <edge id=":6547958199_6" function="internal">
        <lane id=":6547958199_6_0" index="0" allow="bicycle" speed="2.05" length="0.81" width="1.00" shape="4312.80,1958.08,0.01 4312.66,1958.10,0.01 4312.51,1958.03,0.01 4312.35,1957.88,0.01 4312.18,1957.66,0.01"/>
    </edge>
    <edge id=":6547958199_4" function="internal">
        <lane id=":6547958199_4_0" index="0" allow="bicycle" speed="8.33" length="9.56" width="1.00" shape="4312.75,1967.10,0.02 4313.05,1965.37,0.02 4313.16,1964.03,0.02 4313.10,1962.92,0.02 4312.94,1961.89,0.02 4312.70,1960.78,0.01 4312.43,1959.42,0.01 4312.18,1957.66,0.01"/>
    </edge>
    <edge id=":6547958199_5" function="internal">
        <lane id=":6547958199_5_0" index="0" allow="bicycle" speed="2.05" length="0.66" width="1.00" shape="4312.75,1967.10,0.02 4312.94,1966.89,0.02 4313.11,1966.76,0.02 4313.27,1966.71,0.02"/>
    </edge>
    <edge id=":6547958199_7" function="internal">
        <lane id=":6547958199_7_0" index="0" allow="bicycle" speed="2.05" length="0.81" width="1.00" shape="4313.27,1966.71,0.02 4313.41,1966.74,0.02 4313.53,1966.85,0.02 4313.64,1967.04,0.02 4313.72,1967.31,0.02"/>
    </edge>
    <edge id=":6547958218_0" function="internal">
        <lane id=":6547958218_0_0" index="0" allow="bicycle" speed="8.33" length="5.66" width="1.00" shape="4309.79,1953.97,0.01 4309.19,1953.11,0.00 4308.73,1952.42,0.00 4308.36,1951.87,0.00 4307.98,1951.38,-0.00 4307.52,1950.91,-0.00 4306.90,1950.40,-0.00 4306.04,1949.81,-0.01"/>
    </edge>
    <edge id=":6547958218_1" function="internal">
        <lane id=":6547958218_1_0" index="0" allow="bicycle" speed="4.22" length="5.69" width="1.00" shape="4309.79,1953.97,0.01 4309.24,1953.09,0.00 4308.97,1952.35,0.00 4308.98,1951.73,0.00 4309.26,1951.23,0.00 4309.83,1950.86,0.00 4310.67,1950.62,0.00 4311.79,1950.51"/>
    </edge>
    <edge id=":6547958218_2" function="internal">
        <lane id=":6547958218_2_0" index="0" allow="bicycle" speed="2.05" length="1.47" width="1.00" shape="4309.79,1953.97,0.01 4309.76,1953.68,0.01 4309.78,1953.47,0.01 4309.85,1953.32,0.01 4309.96,1953.23,0.01 4310.13,1953.21,0.01 4310.34,1953.26,0.01 4310.60,1953.37,0.00"/>
    </edge>
    <edge id=":6547958218_3" function="internal">
        <lane id=":6547958218_3_0" index="0" allow="bicycle" speed="5.55" length="5.59" width="1.00" shape="4306.58,1948.97,-0.01 4307.45,1949.53,-0.01 4308.14,1949.95,-0.00 4308.73,1950.23,-0.00 4309.32,1950.42,-0.00 4309.97,1950.51,-0.00 4310.77,1950.53,-0.00 4311.79,1950.51"/>
    </edge>
    <edge id=":6547958218_4" function="internal">
        <lane id=":6547958218_4_0" index="0" allow="bicycle" speed="8.33" length="6.02" width="1.00" shape="4306.58,1948.97,-0.01 4307.50,1949.60,-0.00 4308.16,1950.14,-0.00 4308.66,1950.63,-0.00 4309.06,1951.15,-0.00 4309.47,1951.74,0.00 4309.95,1952.46,0.00 4310.60,1953.37,0.00"/>
    </edge>
    <edge id=":6547958218_5" function="internal">
        <lane id=":6547958218_5_0" index="0" allow="bicycle" speed="2.05" length="1.47" width="1.00" shape="4306.58,1948.97,-0.01 4306.71,1949.23,-0.01 4306.77,1949.44,-0.01 4306.76,1949.60,-0.01 4306.68,1949.72,-0.01 4306.54,1949.79,-0.01 4306.32,1949.83,-0.01 4306.04,1949.81,-0.01"/>
    </edge>
    <edge id=":6547958220_0" function="internal">
        <lane id=":6547958220_0_0" index="0" allow="bicycle" speed="8.33" length="4.79" width="1.00" shape="4293.26,1941.49,-0.06 4292.51,1941.04,-0.06 4291.90,1940.76,-0.06 4291.37,1940.63,-0.06 4290.84,1940.59,-0.06 4290.26,1940.62,-0.06 4289.56,1940.69,-0.05 4288.67,1940.75,-0.05"/>
    </edge>
    <edge id=":6547958220_1" function="internal">
        <lane id=":6547958220_1_0" index="0" allow="bicycle" speed="8.33" length="5.34" width="1.00" shape="4293.26,1941.49,-0.06 4292.44,1940.93,-0.07 4291.84,1940.47,-0.07 4291.38,1940.05,-0.07 4291.00,1939.61,-0.08 4290.63,1939.10,-0.08 4290.18,1938.47,-0.08 4289.60,1937.67,-0.09"/>
    </edge>
    <edge id=":6547958220_2" function="internal">
        <lane id=":6547958220_2_0" index="0" allow="bicycle" speed="2.05" length="1.47" width="1.00" shape="4293.26,1941.49,-0.06 4293.13,1941.23,-0.06 4293.07,1941.02,-0.06 4293.08,1940.86,-0.06 4293.16,1940.74,-0.06 4293.31,1940.66,-0.06 4293.52,1940.63,-0.06 4293.80,1940.65,-0.06"/>
    </edge>
    <edge id=":6547958220_3" function="internal">
        <lane id=":6547958220_3_0" index="0" allow="bicycle" speed="8.33" length="4.99" width="1.00" shape="4290.40,1937.07,-0.09 4290.94,1937.83,-0.08 4291.36,1938.41,-0.08 4291.71,1938.89,-0.08 4292.06,1939.30,-0.07 4292.48,1939.70,-0.07 4293.04,1940.13,-0.07 4293.80,1940.65,-0.06"/>
    </edge>
    <edge id=":6547958220_4" function="internal">