<?xml version="1.0" encoding="UTF-8"?>

<!-- generated on 08/12/20 13:19:21 by Eclipse SUMO netedit Version 1.6.0
<configuration xmlns:xsi="http://www.w3.org/2001/XMLSchema-instance" xsi:noNamespaceSchemaLocation="http://sumo.dlr.de/xsd/netconvertConfiguration.xsd">

-->

<additional xmlns:xsi="http://www.w3.org/2001/XMLSchema-instance" xsi:noNamespaceSchemaLocation="http://sumo.dlr.de/xsd/additional_file.xsd">

    <busStop id="H0296" lane="-Tyyn_R13_1" startPos="2.31" endPos="32.31" name="Huutokonttori" lines="1T"/>
    <busStop id="H0297" lane="Tyyn_R13_1" startPos="37.36" endPos="67.36" name="Huutokonttori" lines="-7"/>
    
    <busStop id="H0286" lane="Vali_R12_0" startPos="16.57" endPos="46.57" name="Huutokonttori" lines="9"/>
    <busStop id="H0287" lane="-Vali_R12_0" startPos="2.80" endPos="32.80" name="Huutokonttori" lines="9"/>
    

</additional>
