<?xml version="1.0" encoding="UTF-8"?>

<!-- 

-->

<additional xmlns:xsi="http://www.w3.org/2001/XMLSchema-instance" xsi:noNamespaceSchemaLocation="http://sumo.dlr.de/xsd/additional_file.xsd">
    <tlLogic id="266_Pork_Mech" type="static" programID="2" offset="0">
        <phase duration="90" state="GGGGGGGGGGGGGGGGGGGGGGGGGGGGGGGGGGGGGGGG"/>
                                      
    </tlLogic>
</additional>
