<?xml version='1.0' encoding='UTF-8'?>
<routes xmlns:xsi="http://www.w3.org/2001/XMLSchema-instance" xsi:noNamespaceSchemaLocation="http://sumo.dlr.de/xsd/routes_file.xsd">

<vType id="car_type" accel="4.6" decel="6" sigma="0.1" length="5" minGap="0.5" maxSpeed="60" guiShape="passenger" />
<vType id="bus_type" accel="9.6" decel="4.5" sigma="0.5" length="7" minGap="3" maxSpeed="25" guiShape="bus" />
<vType id="truck_type" accel="1.5" decel="4.5" sigma="0.1" length="15" minGap="0.5" maxSpeed="60" guiShape="truck" />

<route id="Ramp2Sat" edges="Mech_ramppi02 Mech_ramppi03 -Mech03 -Mech01" />
<route id="Ramp2Mech" edges="Mech_ramppi02 Mech_ramppi03 Mech05 Mech06 Mech07 Mech08 Mech09" />

<route id="Itam2Mech" edges="Itam09 Itam10 Itam11 Itam12 Itam13 Itam14 Mech03 Mech04 Mech05 Mech06 Mech07 Mech08 Mech09" />
<route id="Itam2Sat" edges="Itam09 Itam10 Itam11 Itam12 Itam13 Itam14 -Mech01" />
<route id="Itam2Ramp" edges="Itam09 Itam10 Itam11 Itam12 Itam13 Itam14 Mech03 Mech04 Mech05 -Mech_ramp02" />

<route id="Mech2Sat" edges="-Mech08 -Mech07 -Mech06 -Mech05 -Mech03 -Mech01" />
<route id="Mech2Ramp" edges="-Mech08 -Mech07 -Mech06 -Mech_ramp03 -Mech_ramp02" />
<route id="Mech2Itam" edges="-Mech08 -Mech07 -Mech06 -Mech05 -Mech03 -Itam14 -Itam13 -Itam12 -Itam11 -Itam10 -Itam09" />

<route id="Sat2Ramp" edges="Mech01 Mech02 Mech03 Mech04 Mech05 -Mech_ramp03 -Mech_ramp02" />
<route id="Sat2Mech" edges="Mech01 Mech02 Mech03 Mech04 Mech05 Mech06 Mech07 Mech08 Mech09" />
<route id="Sat2Itam" edges="Mech01 Mech02 -Itam14 -Itam13 -Itam12 -Itam11 -Itam10 -Itam09" />


<flow id="Ramp2Sat_truck1" from="Mech_ramppi02" to="-Mech01" route="Ramp2Sat" begin="0" end="3600" type="truck_type" color="255,0,0" period="exp(0.042)" departLane="0" />
<flow id="Ramp2Sat_car1" from="Mech_ramppi02" to="-Mech01" route="Ramp2Sat" begin="0" end="3600" type="car_type" color="27,191,221" period="exp(0.240)" departLane="0" />
<flow id="Ramp2Mech_car1" from="Mech_ramppi02" to="Mech09" route="Ramp2Mech" begin="0" end="3600" type="car_type" color="27,191,221" period="exp(0.120)" departLane="2"> </flow>

<flow id="Itam2Ramp_car1" from="Itam09" to="Mech09" route="Itam2Mech" begin="0" end="3600" type="car_type" color="27,191,221" period="exp(0.023)"> </flow>
<flow id="Itam2Sat_car1" from="Itam09" to="-Mech01" route="Itam2Sat" begin="0" end="3600" type="car_type" color="27,191,221" period="exp(0.031)"> </flow>

<flow id="Mech2Sat_car1" from="-Mech08" to="-Mech01" route="Mech2Sat" begin="0" end="3600" type="car_type" color="27,191,221" period="exp(0.048)" departLane="2" />
<flow id="Mech2Ramp_car1" from="-Mech08" to="-Mech_ramp02" route="Mech2Ramp" begin="0" end="3600" type="car_type" color="27,191,221" period="exp(0.083)" departLane="0" />
<flow id="Mech2Itam_car1" from="-Mech08" to="-Itam09" route="Mech2Itam" begin="0" end="3600" type="car_type" color="27,191,221" period="exp(0.001)" departLane="2" />

<flow id="Sat2Ramp_truck1" from="Mech01" to="-Mech_ramp02" route="Sat2Ramp" begin="0" end="1800" type="truck_type" color="255,0,0" period="exp(0.185)" departLane="1"> </flow>
<flow id="Sat2Ramp_car1" from="Mech01" to="-Mech_ramp02" route="Sat2Ramp" begin="0" end="3600" type="car_type" color="27,191,221" period="exp(0.119)" departLane="2">  </flow>
<flow id="Sat2Mech_car1" from="Mech01" to="Mech09" route="Sat2Mech" begin="0" end="3600" type="car_type" color="27,191,221" period="exp(0.107)">  </flow>
<flow id="Sat2Itam_car1" from="Mech01" to="-Itam09" route="Sat2Itam" begin="0" end="3600" type="car_type" color="27,191,221" period="exp(0.023)" departLane="2"> </flow>


</routes>