<?xml version="1.0" encoding="UTF-8"?>

<!-- generated on 2024-12-14 14:23:04 by Eclipse SUMO GUI Version 1.19.0
<configuration xmlns:xsi="http://www.w3.org/2001/XMLSchema-instance" xsi:noNamespaceSchemaLocation="http://sumo.dlr.de/xsd/sumoConfiguration.xsd">

    <input>
        <net-file value="models/FIELD_DEMO_1124/cfgFiles/../net/JS270_def.net.xml"/>
        <route-files value="models/FIELD_DEMO_1124/cfgFiles/../rou/JS270_cars_trucks.rou.xml,models/FIELD_DEMO_1124/cfgFiles/ ../rou/JS270_trams2.rou.xml,models/FIELD_DEMO_1124/cfgFiles/ ../rou/JS270_bikes.rou.xml"/>
        <additional-files value="models/FIELD_DEMO_1124/cfgFiles/../add/JR_vehicletypes.add.xml,models/FIELD_DEMO_1124/cfgFiles/ ../tll/ft270_1.tll.xml,models/FIELD_DEMO_1124/cfgFiles/ ../add/JS270_stations.add.xml,models/FIELD_DEMO_1124/cfgFiles/         ../add/JS270_e1_dets.add.xml,models/FIELD_DEMO_1124/cfgFiles/ ../add/JS270_e3s_dets.add.xml"/>
    </input>

    <output>
        <output-prefix value="JS_"/>
    </output>

    <time>
        <begin value="0"/>
        <end value="36000000"/>
        <step-length value="0.1"/>
    </time>

    <processing>
        <lateral-resolution value="0.5"/>
        <ignore-route-errors value="0"/>
        <collision.action value="warn"/>
        <scale value="0.5"/>
        <time-to-teleport value="300"/>
        <random-depart-offset value="60"/>
        <parking.maneuver value="false"/>
    </processing>

    <report>
        <verbose value="t"/>
        <no-step-log value="f"/>
        <step-log.period value="1000"/>
    </report>

    <traci_server>
        <remote-port value="53017"/>
    </traci_server>

    <gui_only>
        <gui-settings-file value="models/FIELD_DEMO_1124/cfgFiles/../gui/JS270_near.guicfg.xml"/>
        <quit-on-end value="true"/>
        <start value="true"/>
        <delay value="300"/>
        <demo value="0"/>
    </gui_only>

</configuration>
