<?xml version="1.0" encoding="UTF-8"?>

<!-- generated on 2022-10-07 17:20:21 by Eclipse SUMO netedit Version 1.10.0
<configuration xmlns:xsi="http://www.w3.org/2001/XMLSchema-instance" xsi:noNamespaceSchemaLocation="http://sumo.dlr.de/xsd/netconvertConfiguration.xsd">

    <input>
        <sumo-net-file value="C:\Users\iisak\sumo-mallit\1junction\4leg\4legNL_v2.net.xml"/>
    </input>

    <output>
        <output-file value="C:\Users\iisak\sumo-mallit\1junction\4leg\4legNL1S_v3.net.xml"/>
    </output>

    <processing>
        <geometry.min-radius.fix.railways value="false"/>
        <geometry.max-grade.fix value="false"/>
        <offset.disable-normalization value="true"/>
        <lefthand value="false"/>
    </processing>

    <junctions>
        <no-turnarounds value="true"/>
        <junctions.corner-detail value="5"/>
        <junctions.limit-turn-speed value="5.5"/>
        <rectangular-lane-cut value="false"/>
    </junctions>

    <pedestrian>
        <walkingareas value="false"/>
    </pedestrian>

    <report>
        <aggregate-warnings value="5"/>
    </report>

</configuration>
-->

<additional xmlns:xsi="http://www.w3.org/2001/XMLSchema-instance" xsi:noNamespaceSchemaLocation="http://sumo.dlr.de/xsd/additional_file.xsd">
    <tlLogic id="N_J1" type="static" programID="1" offset="0">
        <phase duration="42" state="rGGrr"/>
        <phase duration="3"  state="ryyrr"/>
        <phase duration="42" state="rrrGG"/>
        <phase duration="3"  state="rrryy"/>
    </tlLogic>
</additional>
