<?xml version="1.0" encoding="UTF-8"?>

<!-- generated on 2025-06-09 15:25:21 by Eclipse SUMO netedit Version 1.20.0
-->

<additional xmlns:xsi="http://www.w3.org/2001/XMLSchema-instance" xsi:noNamespaceSchemaLocation="http://sumo.dlr.de/xsd/additional_file.xsd">
    <!-- Detectors -->
    <entryExitDetector id="e3Det_East" pos="91.13,60.32" period="900.00" file="../out/e3Det_East.det.out.xml">
        <detEntry lane="E_E0_0" pos="10.00"/>
        <detExit lane="E_E1_0" pos="-1.00"/>
    </entryExitDetector>
    <entryExitDetector id="e3Det_North" pos="-3.39,73.87" period="900.00" file="../out/e3Det_North.det.out.xml">
        <detEntry lane="E_N0_0" pos="10.00"/>
        <detExit lane="E_N0_0" pos="-1.00"/>
    </entryExitDetector>
    <entryExitDetector id="e3Det_Soutth" pos="29.36,12.29" period="900.00" file="../out/e3Det_Soutth.det.out.xml">
        <detEntry lane="E_S0_0" pos="10.00"/>
        <detExit lane="E_S0_0" pos="-1.00"/>
    </entryExitDetector>
    <entryExitDetector id="e3Det_West" pos="-51.63,19.01" period="900.00" file="../out/e3Det_West.det.out.xml">
        <detEntry lane="E_W0_0" pos="10.00"/>
        <detExit lane="E_W1_0" pos="-1.00"/>
    </entryExitDetector>
</additional>
