<?xml version="1.0" encoding="UTF-8"?>

<!-- Testiliikenne risteyksen 269-270 valojen toiminnan tarkasteluun -->

<routes xmlns:xsi="http://www.w3.org/2001/XMLSchema-instance" xsi:noNamespaceSchemaLocation="http://sumo.dlr.de/xsd/routes_file.xsd">

<vType id="truck"      accel="0.8" decel="4.5" sigma="0.5" length="18"  minGap="2.5" maxSpeed="16" guiShape="passenger"/>
<vType id="car_type"   accel="4.6" decel="4.5" sigma="0.1" length="5"  minGap="0.5" maxSpeed="30" guiShape="passenger"/>
<vType id="bus_type"   accel="9.6" decel="4.5" sigma="0.5" length="7"  minGap="3"   maxSpeed="25" guiShape="bus"/>
<vType id="truck_type" accel="2.6" decel="4.5" sigma="0.1" length="15" minGap="0.5"   maxSpeed="25" guiShape="truck"/>

<route id="Sat2Vali"   edges="Tyyn09 Tyyn10 Tyyn11 Tyyn12 Tyyn13 Tyyn14 -Vali13 -Vali12 -Vali11 -Vali10" />
<route id="Sat2Jatk"   edges="Tyyn09 Tyyn10 Tyyn11 Tyyn12 Tyyn13 Tyyn14 Jatk01 Jatk02" />

<route id="Vali2Jatk"  edges="Vali10 Vali11 Vali12 Vali13 Jatk01 Jatk02" />
<route id="Vali2Sat"   edges="Vali10 Vali11 Vali12 Vali13 -Tyyn14 -Tyyn13 -Tyyn12 -Tyyn11 -Tyyn10 -Tyyn09" />

<route id="Jatk2Sat"   edges="-Jatk01 -Tyyn14 -Tyyn13 -Tyyn12 -Tyyn11 -Tyyn10 -Tyyn09" />
<route id="Jatk2Vali"  edges="-Jatk01 -Vali13 -Vali12 -Vali11 -Vali10" />

<flow id="F_Trucks2Jatk" from="Tyyn09"  to="Jatk02"  route="Sat2Jatk"   departLane="2"  departSpeed="10" begin="0" end="360000" type="truck"    color="220,220,220" probability="0.07"> </flow>
<flow id="F_Sat2Jatk"    from="Tyyn09"  to="Jatk02"  route="Sat2Jatk"   departLane="3"  departSpeed="10" begin="0" end="360000" type="car_type" color="220,220,220" probability="0.07"> </flow>
<flow id="F_Sat2Vali"    from="Tyyn09"  to="-Vali10" route="Sat2Vali"   departLane="3"  departSpeed="10" begin="0" end="360000" type="car_type" color="220,220,220" probability="0.03"> </flow>

<flow id="F_Trucks2Sat"  from="-Jatk01" to="-Tyyn09" route="Jatk2Sat"   departLane="1"  departSpeed="10" begin="0" end="360000" type="truck"    color="220,220,220" probability="0.10"> </flow>
<flow id="F_Jatk2Sat"    from="-Jatk01" to="-Tyyn09" route="Jatk2Sat"   departLane="1"  departSpeed="10" begin="0" end="360000" type="car_type" color="220,220,220" probability="0.10"> </flow>
<flow id="F_Jatk2Vali"   from="-Jatk01" to="-Vali10" route="Jatk2Vali"  departLane="0"  departSpeed="10" begin="0" end="360000" type="car_type" color="220,220,220" probability="0.05"> </flow>

<flow id="F_Vali2Sat"    from="Vali10"  to="-Tyyn09" route="Vali2Sat"   departLane="0"  departSpeed="10" begin="0" end="360000" type="car_type" color="220,220,220" probability="0.02"> </flow>
<flow id="F_Vali2Jatk"   from="Vali10"  to="Jatk02"  route="Vali2Jatk"  departLane="0"  departSpeed="10" begin="0" end="360000" type="car_type" color="220,220,220" probability="0.08"> </flow>


<!---


-->
   
</routes>
