<?xml version="1.0" encoding="UTF-8"?>

<!-- generated on 07/29/21 12:37:59 by Eclipse SUMO netedit Version 1.8.0
<configuration xmlns:xsi="http://www.w3.org/2001/XMLSchema-instance" xsi:noNamespaceSchemaLocation="http://sumo.dlr.de/xsd/netconvertConfiguration.xsd">

    <input>
        <sumo-net-file value="C:\Users\iisak\traffic-controller\Demo\Sumofiles\JR_Demo154.net.xml"/>
    </input>

    <output>
        <output-file value="C:\Users\iisak\traffic-controller\Demo\Sumofiles\JR_Demo154.net.xml"/>
        <output.street-names value="true"/>
    </output>

    <processing>
        <geometry.min-radius.fix.railways value="false"/>
        <geometry.max-grade.fix value="false"/>
        <offset.disable-normalization value="true"/>
        <lefthand value="false"/>
    </processing>

    <junctions>
        <no-internal-links value="false"/>
        <no-turnarounds value="true"/>
        <junctions.corner-detail value="8"/>
        <junctions.internal-link-detail value="8"/>
        <junctions.limit-turn-speed value="5.5"/>
        <rectangular-lane-cut value="false"/>
    </junctions>

    <pedestrian>
        <walkingareas value="true"/>
    </pedestrian>

    <report>
        <aggregate-warnings value="5"/>
    </report>

</configuration>
-->

<additional xmlns:xsi="http://www.w3.org/2001/XMLSchema-instance" xsi:noNamespaceSchemaLocation="http://sumo.dlr.de/xsd/additional_file.xsd">
    <tlLogic id="270_Tyyn_Vali" type="static" programID="1" offset="0">
        <phase duration="1" state="rrrrrrrrrrrrrrrr"/>
        <phase duration="20" state="GGGGrrrrrrrrrGGG"/>
        <phase duration="3" state="yyyyrrrrrrrrrrrr"/>
        <phase duration="60" state="rrrrrGGrGrGGGrrr"/>
        <phase duration="3" state="rrrrryyryrrrrrrr"/>
        <phase duration="10" state="rrrrrrGGrrrrrrrr"/>
        <phase duration="3" state="rrrrrryyrrrrrrrr"/>
    </tlLogic>
</additional>
