<?xml version="1.0" encoding="UTF-8"?>


<additional xmlns:xsi="http://www.w3.org/2001/XMLSchema-instance" xsi:noNamespaceSchemaLocation="http://sumo.dlr.de/xsd/additional_file.xsd">

    <e3Detector id="e3Det_270_Tyyn" pos="4300,1600" freq="900.00" file="NULL">
        <detEntry lane="Tyyn12_0"   pos="2.00"/>
        <detEntry lane="Tyyn12_1"   pos="2.00"/>
        <detExit  lane="Tyyn13_0"   pos="-2.00"/>
        <detExit  lane="Tyyn13_1"   pos="-2.00"/>
        <detExit  lane="Tyyn13_2"   pos="2.00"/>
    </e3Detector>

    <e3Detector id="e3Det_270_Tyyn_Left" pos="4300,1620" freq="900.00" file="NULL">
        <detEntry lane="Tyyn13_2"   pos="5.00"/>
        <detExit  lane="Tyyn13_2"   pos="-2.00"/>
    </e3Detector>
   
    <e3Detector id="e3Det_270_Jatk" pos="4260,1730" freq="900.00" file="NULL">
        <detEntry lane="-Jatk01_1"  pos="-140.00"/>
        <detExit  lane="-Jatk01_1"  pos="-2.00"/>
    </e3Detector>
    
    <e3Detector id="e3Det_270_Jatk_Right" pos="4250,1700" freq="900.00" file="NULL">
        <detEntry lane="-Jatk01_0"  pos="-140.00"/>
        <detExit  lane="-Jatk01_0"  pos="-2.00"/>
    </e3Detector>

    <e3Detector id="e3Det_270_Vali" pos="4220,1620" freq="900.00" file="NULL">
        <detEntry lane="Vali12_0"   pos="2.00"/>
        <detExit  lane="Vali12_0"   pos="-2.00"/>
    </e3Detector>

    <e3Detector id="e3Det_270_Tyyn_Tram" pos="4300,1610" freq="900.00" file="NULL">
        <detEntry lane="Tyyn_R13_1"   pos="5.00"/>
        <detExit  lane="Tyyn_R13_1"   pos="-2.00"/>
    </e3Detector>
    
    <e3Detector id="e3Det_270_Vali_Tram" pos="4210,1620" freq="900.00" file="NULL">
        <detEntry lane="Vali_R12_0"   pos="5.00"/>
        <detExit  lane="Vali_R12_0"   pos="-2.00"/>
    </e3Detector>
    
    <e3Detector id="e3Det_270_Jatk_Tram" pos="4250,1710" freq="900.00" file="NULL">
        <detEntry lane="-Jatk_R01_0"  pos="-20.00"/>
        <detExit  lane="-Jatk_R01_0"  pos="-2.00"/>
    </e3Detector>

</additional>


