<?xml version="1.0" encoding="UTF-8"?>

<!-- 

Move unused detectors here

-->

<additional xmlns:xsi="http://www.w3.org/2001/XMLSchema-instance" xsi:noNamespaceSchemaLocation="http://sumo.dlr.de/xsd/additional_file.xsd">
    <e1Detector id="1-002"   lane="Vali12_0"     pos="-3.00"  freq="900.00" file="NUL"/>
    <e1Detector id="1-040"   lane="Vali12_0"     pos="-38.00" freq="900.00" file="NUL"/>
    <e1Detector id="2-002"   lane="-Jatk01_0"    pos="218.85" freq="900.00" file="NUL"/>
    <e1Detector id="2-040"   lane="-Jatk01_0"    pos="-40.00" freq="900.00" file="NUL"/>
    
    <e1Detector id="5-002"   lane="-Jatk01_1"    pos="218.70" freq="900.00" file="NUL"/>
    <e1Detector id="5-040"   lane="-Jatk01_1"    pos="-43.00" freq="900.00" file="NUL"/>
    <e1Detector id="6-002A"  lane="Tyyn13_0"     pos="25.80"  freq="900.00" file="NUL"/>
    <e1Detector id="6-002B"  lane="Tyyn13_1"     pos="25.66"  freq="900.00" file="NUL"/>
    <e1Detector id="6-030"   lane="Tyyn13_1"     pos="-28.00" freq="900.00" file="NUL"/>
    <e1Detector id="6-040"   lane="Tyyn12_0"     pos="-3.00"  freq="900.00" file="NUL"/>
    <e1Detector id="7-001"   lane="Tyyn13_2"     pos="25.54"  freq="900.00" file="NUL"/>
    <e1Detector id="7-020"   lane="Tyyn13_2"     pos="-18.00" freq="900.00" file="NUL"/>
    
    <e1Detector id="R3PY"    lane="Vali_R12_0"   pos="-25.00" freq="900.00" file="NUL"/>
    <e1Detector id="3-002R"  lane="Vali_R12_0"   pos="-3.00"  freq="900.00" file="NUL"/>
    <e1Detector id="R3KU"    lane="Jatk_R01_0"   pos="10.00"  freq="900.00" file="NUL"/>
    
    <e1Detector id="R4PY"    lane="-Jatk_R01_0"  pos="-185"   freq="900.00" file="NUL" vTypes="tram_R9"/>
    <e1Detector id="4-002R9" lane="-Jatk_R01_0"  pos="-8.0"   freq="900.00" file="NUL" vTypes="tram_R9"/>
    <e1Detector id="R4KU"    lane="-Vali_R12_0"  pos="5.00"   freq="900.00" file="NUL"/>

    <e1Detector id="R8PY"    lane="-Jatk_R01_0"  pos="-180"   freq="900.00" file="NUL" vTypes="tram_R7"/>
    <e1Detector id="8-008R7" lane="-Jatk_R01_0"  pos="-3.00"  freq="900.00" file="NUL" vTypes="tram_R7"/>
    <e1Detector id="R8KU"    lane="-Tyyn_R13_1"   pos="5.00"  freq="900.00" file="NUL"/>
  
    <e1Detector id="R9PY"    lane="Tyyn_R13_1"   pos="-25.00" freq="900.00" file="NUL"/>    
    <e1Detector id="9-002R"  lane="Tyyn_R13_1"   pos="-3.00"  freq="900.00" file="NUL"/>
    <e1Detector id="R9KU"    lane="Jatk_R01_0"   pos="5.00"   freq="900.00" file="NUL"/>
    
    <e1Detector id="10-001P" lane="Vali_ylitTyy34_0" pos="-1.50" freq="900.00" file="NUL" friendlyPos="1"/>
    <e1Detector id="13-001P" lane="Jatk_jp01b_0" pos="-1.50"     freq="900.00" file="NUL" friendlyPos="1"/>
    <e1Detector id="15-001P" lane="-Tyyn_jp14_1" pos="-1.50"     freq="900.00" file="NUL" friendlyPos="1"/>
    
</additional>
