<?xml version="1.0" encoding="UTF-8"?>

<!-- generated on 2026-02-16T15:54:15.393480+02:00 by Eclipse SUMO GUI 1.26.0
<sumoConfiguration xmlns:xsi="http://www.w3.org/2001/XMLSchema-instance" xsi:noNamespaceSchemaLocation="http://sumo.dlr.de/xsd/sumoConfiguration.xsd">

    <input>
        <net-file value="models/JS270_DEMO/cfgFiles/../net/JS270_def.net.xml"/>
        <route-files value="models/JS270_DEMO/cfgFiles/../rou/JS270_cars_trucks.rou.xml,models/JS270_DEMO/cfgFiles/ ../rou/JS270_trams2.rou.xml,models/JS270_DEMO/cfgFiles/ ../rou/JS270_bikes.rou.xml"/>
        <additional-files value="models/JS270_DEMO/cfgFiles/../add/JR_vehicletypes.add.xml,models/JS270_DEMO/cfgFiles/ ../tll/ft270_1.tll.xml,models/JS270_DEMO/cfgFiles/ ../add/JS270_stations.add.xml,models/JS270_DEMO/cfgFiles/         ../add/JS270_e1_dets.add.xml,models/JS270_DEMO/cfgFiles/ ../add/JS270_e3s_dets.add.xml"/>
    </input>

    <output>
        <output-prefix value="JS_"/>
    </output>

    <time>
        <begin value="0"/>
        <end value="36000000"/>
        <step-length value="0.1"/>
    </time>

    <processing>
        <lateral-resolution value="0.5"/>
        <ignore-route-errors value="0"/>
        <collision.action value="warn"/>
        <scale value="1.0"/>
        <time-to-teleport value="300"/>
        <random-depart-offset value="60"/>
        <parking.maneuver value="false"/>
    </processing>

    <report>
        <verbose value="t"/>
        <no-step-log value="f"/>
        <step-log.period value="1000"/>
    </report>

    <traci_server>
        <remote-port value="59756"/>
    </traci_server>

    <gui_only>
        <gui-settings-file value="models/JS270_DEMO/cfgFiles/../gui/JS270_near.guicfg.xml"/>
        <quit-on-end value="true"/>
        <start value="true"/>
        <delay value="300"/>
        <demo value="0"/>
    </gui_only>

</sumoConfiguration>
-->

<e3Detector xmlns:xsi="http://www.w3.org/2001/XMLSchema-instance" xsi:noNamespaceSchemaLocation="http://sumo.dlr.de/xsd/det_e3_file.xsd">
   <interval begin="0.00" end="305.00" id="e3Det_270_Tyyn" meanTravelTime="5.31" meanOverlapTravelTime="8.86" meanSpeed="7.86" meanHaltsPerVehicle="0.29" meanTimeLoss="4.26" vehicleSum="52" meanSpeedWithin="-1.00" meanHaltsPerVehicleWithin="-1.00" meanDurationWithin="-1.00" vehicleSumWithin="0" meanIntervalSpeedWithin="-1.00" meanIntervalHaltsPerVehicleWithin="-1.00" meanIntervalDurationWithin="-1.00" meanTimeLossWithin="-1.00"/>
   <interval begin="0.00" end="305.00" id="e3Det_270_Tyyn_Left" meanTravelTime="10.07" meanOverlapTravelTime="26.27" meanSpeed="2.36" meanHaltsPerVehicle="0.82" meanTimeLoss="23.62" vehicleSum="11" meanSpeedWithin="-1.00" meanHaltsPerVehicleWithin="-1.00" meanDurationWithin="-1.00" vehicleSumWithin="0" meanIntervalSpeedWithin="-1.00" meanIntervalHaltsPerVehicleWithin="-1.00" meanIntervalDurationWithin="-1.00" meanTimeLossWithin="-1.00"/>
   <interval begin="0.00" end="305.00" id="e3Det_270_Jatk" meanTravelTime="17.47" meanOverlapTravelTime="22.38" meanSpeed="6.34" meanHaltsPerVehicle="0.32" meanTimeLoss="16.78" vehicleSum="44" meanSpeedWithin="8.64" meanHaltsPerVehicleWithin="0.00" meanDurationWithin="3.31" vehicleSumWithin="4" meanIntervalSpeedWithin="8.64" meanIntervalHaltsPerVehicleWithin="0.00" meanIntervalDurationWithin="3.31" meanTimeLossWithin="0.41"/>
   <interval begin="0.00" end="305.00" id="e3Det_270_Jatk_Right" meanTravelTime="9.96" meanOverlapTravelTime="16.56" meanSpeed="7.05" meanHaltsPerVehicle="0.33" meanTimeLoss="11.76" vehicleSum="6" meanSpeedWithin="0.99" meanHaltsPerVehicleWithin="1.00" meanDurationWithin="37.68" vehicleSumWithin="4" meanIntervalSpeedWithin="0.99" meanIntervalHaltsPerVehicleWithin="1.00" meanIntervalDurationWithin="37.68" meanTimeLossWithin="34.03"/>
   <interval begin="0.00" end="305.00" id="e3Det_270_Vali" meanTravelTime="34.18" meanOverlapTravelTime="40.80" meanSpeed="3.20" meanHaltsPerVehicle="0.72" meanTimeLoss="36.25" vehicleSum="25" meanSpeedWithin="1.29" meanHaltsPerVehicleWithin="1.00" meanDurationWithin="21.63" vehicleSumWithin="7" meanIntervalSpeedWithin="1.29" meanIntervalHaltsPerVehicleWithin="1.00" meanIntervalDurationWithin="21.63" meanTimeLossWithin="19.03"/>
   <interval begin="0.00" end="305.00" id="e3Det_270_Tyyn_Tram" meanTravelTime="4.08" meanOverlapTravelTime="33.53" meanSpeed="1.67" meanHaltsPerVehicle="1.00" meanTimeLoss="16.05" vehicleSum="1" meanSpeedWithin="-1.00" meanHaltsPerVehicleWithin="-1.00" meanDurationWithin="-1.00" vehicleSumWithin="0" meanIntervalSpeedWithin="-1.00" meanIntervalHaltsPerVehicleWithin="-1.00" meanIntervalDurationWithin="-1.00" meanTimeLossWithin="-1.00"/>
   <interval begin="0.00" end="305.00" id="e3Det_270_Vali_Tram" meanTravelTime="5.74" meanOverlapTravelTime="43.24" meanSpeed="1.30" meanHaltsPerVehicle="2.00" meanTimeLoss="35.06" vehicleSum="1" meanSpeedWithin="-1.00" meanHaltsPerVehicleWithin="-1.00" meanDurationWithin="-1.00" vehicleSumWithin="0" meanIntervalSpeedWithin="-1.00" meanIntervalHaltsPerVehicleWithin="-1.00" meanIntervalDurationWithin="-1.00" meanTimeLossWithin="-1.00"/>
   <interval begin="0.00" end="305.00" id="e3Det_270_Jatk_Tram" meanTravelTime="2.02" meanOverlapTravelTime="34.60" meanSpeed="7.29" meanHaltsPerVehicle="0.50" meanTimeLoss="28.65" vehicleSum="2" meanSpeedWithin="-1.00" meanHaltsPerVehicleWithin="-1.00" meanDurationWithin="-1.00" vehicleSumWithin="0" meanIntervalSpeedWithin="-1.00" meanIntervalHaltsPerVehicleWithin="-1.00" meanIntervalDurationWithin="-1.00" meanTimeLossWithin="-1.00"/>
</e3Detector>
