<?xml version="1.0" encoding="UTF-8"?>

<!-- generated on 2026-02-16 15:38:31 by Eclipse SUMO GUI Version 1.22.0
<sumoConfiguration xmlns:xsi="http://www.w3.org/2001/XMLSchema-instance" xsi:noNamespaceSchemaLocation="http://sumo.dlr.de/xsd/sumoConfiguration.xsd">

    <input>
        <net-file value="models/JS270_DEMO/cfgFiles/../net/JS270_def.net.xml"/>
        <route-files value="models/JS270_DEMO/cfgFiles/../rou/JS270_cars_trucks.rou.xml,models/JS270_DEMO/cfgFiles/ ../rou/JS270_trams2.rou.xml,models/JS270_DEMO/cfgFiles/ ../rou/JS270_bikes.rou.xml"/>
        <additional-files value="models/JS270_DEMO/cfgFiles/../add/JR_vehicletypes.add.xml,models/JS270_DEMO/cfgFiles/ ../tll/ft270_1.tll.xml,models/JS270_DEMO/cfgFiles/ ../add/JS270_stations.add.xml,models/JS270_DEMO/cfgFiles/         ../add/JS270_e1_dets.add.xml,models/JS270_DEMO/cfgFiles/ ../add/JS270_e3s_dets.add.xml"/>
    </input>

    <output>
        <output-prefix value="JS_"/>
    </output>

    <time>
        <begin value="0"/>
        <end value="36000000"/>
        <step-length value="0.1"/>
    </time>

    <processing>
        <lateral-resolution value="0.5"/>
        <ignore-route-errors value="0"/>
        <collision.action value="warn"/>
        <scale value="1.0"/>
        <time-to-teleport value="300"/>
        <random-depart-offset value="60"/>
        <parking.maneuver value="false"/>
    </processing>

    <report>
        <verbose value="t"/>
        <no-step-log value="f"/>
        <step-log.period value="1000"/>
    </report>

    <traci_server>
        <remote-port value="60167"/>
    </traci_server>

    <gui_only>
        <gui-settings-file value="models/JS270_DEMO/cfgFiles/../gui/JS270_near.guicfg.xml"/>
        <quit-on-end value="true"/>
        <start value="true"/>
        <delay value="300"/>
        <demo value="0"/>
    </gui_only>

</sumoConfiguration>
-->

<e3Detector xmlns:xsi="http://www.w3.org/2001/XMLSchema-instance" xsi:noNamespaceSchemaLocation="http://sumo.dlr.de/xsd/det_e3_file.xsd">
   <interval begin="0.00" end="900.00" id="e3Det_270_Tyyn" meanTravelTime="6.28" meanOverlapTravelTime="10.21" meanSpeed="7.55" meanHaltsPerVehicle="0.31" meanTimeLoss="5.60" vehicleSum="143" meanSpeedWithin="9.99" meanHaltsPerVehicleWithin="0.00" meanDurationWithin="3.10" vehicleSumWithin="1" meanIntervalSpeedWithin="9.99" meanIntervalHaltsPerVehicleWithin="0.00" meanIntervalDurationWithin="3.10" meanTimeLossWithin="0.00"/>
   <interval begin="0.00" end="900.00" id="e3Det_270_Tyyn_Left" meanTravelTime="13.64" meanOverlapTravelTime="27.50" meanSpeed="1.73" meanHaltsPerVehicle="0.89" meanTimeLoss="24.85" vehicleSum="28" meanSpeedWithin="-1.00" meanHaltsPerVehicleWithin="-1.00" meanDurationWithin="-1.00" vehicleSumWithin="0" meanIntervalSpeedWithin="-1.00" meanIntervalHaltsPerVehicleWithin="-1.00" meanIntervalDurationWithin="-1.00" meanTimeLossWithin="-1.00"/>
   <interval begin="0.00" end="900.00" id="e3Det_270_Jatk" meanTravelTime="20.62" meanOverlapTravelTime="25.54" meanSpeed="5.97" meanHaltsPerVehicle="0.36" meanTimeLoss="19.98" vehicleSum="145" meanSpeedWithin="0.37" meanHaltsPerVehicleWithin="1.00" meanDurationWithin="55.67" vehicleSumWithin="4" meanIntervalSpeedWithin="0.37" meanIntervalHaltsPerVehicleWithin="1.00" meanIntervalDurationWithin="55.67" meanTimeLossWithin="53.47"/>
   <interval begin="0.00" end="900.00" id="e3Det_270_Jatk_Right" meanTravelTime="12.80" meanOverlapTravelTime="20.57" meanSpeed="4.99" meanHaltsPerVehicle="0.57" meanTimeLoss="15.79" vehicleSum="37" meanSpeedWithin="0.74" meanHaltsPerVehicleWithin="1.00" meanDurationWithin="60.50" vehicleSumWithin="2" meanIntervalSpeedWithin="0.74" meanIntervalHaltsPerVehicleWithin="1.00" meanIntervalDurationWithin="60.50" meanTimeLossWithin="55.77"/>
   <interval begin="0.00" end="900.00" id="e3Det_270_Vali" meanTravelTime="38.37" meanOverlapTravelTime="45.60" meanSpeed="2.85" meanHaltsPerVehicle="0.82" meanTimeLoss="41.05" vehicleSum="95" meanSpeedWithin="2.24" meanHaltsPerVehicleWithin="0.83" meanDurationWithin="20.84" vehicleSumWithin="6" meanIntervalSpeedWithin="2.24" meanIntervalHaltsPerVehicleWithin="0.83" meanIntervalDurationWithin="20.84" meanTimeLossWithin="18.14"/>
   <interval begin="0.00" end="900.00" id="e3Det_270_Tyyn_Tram" meanTravelTime="4.08" meanOverlapTravelTime="33.63" meanSpeed="1.67" meanHaltsPerVehicle="1.00" meanTimeLoss="19.65" vehicleSum="1" meanSpeedWithin="-1.00" meanHaltsPerVehicleWithin="-1.00" meanDurationWithin="-1.00" vehicleSumWithin="0" meanIntervalSpeedWithin="-1.00" meanIntervalHaltsPerVehicleWithin="-1.00" meanIntervalDurationWithin="-1.00" meanTimeLossWithin="-1.00"/>
   <interval begin="0.00" end="900.00" id="e3Det_270_Vali_Tram" meanTravelTime="5.74" meanOverlapTravelTime="43.34" meanSpeed="1.30" meanHaltsPerVehicle="2.00" meanTimeLoss="39.26" vehicleSum="1" meanSpeedWithin="-1.00" meanHaltsPerVehicleWithin="-1.00" meanDurationWithin="-1.00" vehicleSumWithin="0" meanIntervalSpeedWithin="-1.00" meanIntervalHaltsPerVehicleWithin="-1.00" meanIntervalDurationWithin="-1.00" meanTimeLossWithin="-1.00"/>
   <interval begin="0.00" end="900.00" id="e3Det_270_Jatk_Tram" meanTravelTime="2.02" meanOverlapTravelTime="34.65" meanSpeed="7.29" meanHaltsPerVehicle="0.50" meanTimeLoss="31.38" vehicleSum="2" meanSpeedWithin="-1.00" meanHaltsPerVehicleWithin="-1.00" meanDurationWithin="-1.00" vehicleSumWithin="0" meanIntervalSpeedWithin="-1.00" meanIntervalHaltsPerVehicleWithin="-1.00" meanIntervalDurationWithin="-1.00" meanTimeLossWithin="-1.00"/>
   <interval begin="900.00" end="1240.80" id="e3Det_270_Tyyn" meanTravelTime="7.00" meanOverlapTravelTime="10.43" meanSpeed="8.19" meanHaltsPerVehicle="0.20" meanTimeLoss="5.56" vehicleSum="65" meanSpeedWithin="4.73" meanHaltsPerVehicleWithin="0.60" meanDurationWithin="6.71" vehicleSumWithin="5" meanIntervalSpeedWithin="4.73" meanIntervalHaltsPerVehicleWithin="0.60" meanIntervalDurationWithin="6.71" meanTimeLossWithin="3.41"/>
   <interval begin="900.00" end="1240.80" id="e3Det_270_Tyyn_Left" meanTravelTime="10.80" meanOverlapTravelTime="21.40" meanSpeed="2.91" meanHaltsPerVehicle="0.71" meanTimeLoss="18.76" vehicleSum="7" meanSpeedWithin="0.93" meanHaltsPerVehicleWithin="1.00" meanDurationWithin="25.19" vehicleSumWithin="1" meanIntervalSpeedWithin="0.93" meanIntervalHaltsPerVehicleWithin="1.00" meanIntervalDurationWithin="25.19" meanTimeLossWithin="22.93"/>
   <interval begin="900.00" end="1240.80" id="e3Det_270_Jatk" meanTravelTime="18.17" meanOverlapTravelTime="21.98" meanSpeed="6.72" meanHaltsPerVehicle="0.26" meanTimeLoss="16.36" vehicleSum="68" meanSpeedWithin="1.80" meanHaltsPerVehicleWithin="1.00" meanDurationWithin="13.12" vehicleSumWithin="5" meanIntervalSpeedWithin="1.80" meanIntervalHaltsPerVehicleWithin="1.00" meanIntervalDurationWithin="13.12" meanTimeLossWithin="10.40"/>
   <interval begin="900.00" end="1240.80" id="e3Det_270_Jatk_Right" meanTravelTime="9.30" meanOverlapTravelTime="16.55" meanSpeed="5.71" meanHaltsPerVehicle="0.53" meanTimeLoss="11.76" vehicleSum="15" meanSpeedWithin="9.97" meanHaltsPerVehicleWithin="0.00" meanDurationWithin="4.44" vehicleSumWithin="1" meanIntervalSpeedWithin="9.97" meanIntervalHaltsPerVehicleWithin="0.00" meanIntervalDurationWithin="4.44" meanTimeLossWithin="0.01"/>
   <interval begin="900.00" end="1240.80" id="e3Det_270_Vali" meanTravelTime="39.55" meanOverlapTravelTime="49.47" meanSpeed="2.14" meanHaltsPerVehicle="0.84" meanTimeLoss="44.95" vehicleSum="31" meanSpeedWithin="0.82" meanHaltsPerVehicleWithin="1.00" meanDurationWithin="41.20" vehicleSumWithin="4" meanIntervalSpeedWithin="0.82" meanIntervalHaltsPerVehicleWithin="1.00" meanIntervalDurationWithin="41.20" meanTimeLossWithin="38.54"/>
   <interval begin="900.00" end="1240.80" id="e3Det_270_Tyyn_Tram" meanTravelTime="-1.00" meanOverlapTravelTime="-1.00" meanSpeed="-1.00" meanHaltsPerVehicle="-1.00" meanTimeLoss="-1.00" vehicleSum="0" meanSpeedWithin="-1.00" meanHaltsPerVehicleWithin="-1.00" meanDurationWithin="-1.00" vehicleSumWithin="0" meanIntervalSpeedWithin="-1.00" meanIntervalHaltsPerVehicleWithin="-1.00" meanIntervalDurationWithin="-1.00" meanTimeLossWithin="-1.00"/>
   <interval begin="900.00" end="1240.80" id="e3Det_270_Vali_Tram" meanTravelTime="-1.00" meanOverlapTravelTime="-1.00" meanSpeed="-1.00" meanHaltsPerVehicle="-1.00" meanTimeLoss="-1.00" vehicleSum="0" meanSpeedWithin="-1.00" meanHaltsPerVehicleWithin="-1.00" meanDurationWithin="-1.00" vehicleSumWithin="0" meanIntervalSpeedWithin="-1.00" meanIntervalHaltsPerVehicleWithin="-1.00" meanIntervalDurationWithin="-1.00" meanTimeLossWithin="-1.00"/>
   <interval begin="900.00" end="1240.80" id="e3Det_270_Jatk_Tram" meanTravelTime="-1.00" meanOverlapTravelTime="-1.00" meanSpeed="-1.00" meanHaltsPerVehicle="-1.00" meanTimeLoss="-1.00" vehicleSum="0" meanSpeedWithin="-1.00" meanHaltsPerVehicleWithin="-1.00" meanDurationWithin="-1.00" vehicleSumWithin="0" meanIntervalSpeedWithin="-1.00" meanIntervalHaltsPerVehicleWithin="-1.00" meanIntervalDurationWithin="-1.00" meanTimeLossWithin="-1.00"/>
</e3Detector>
