<?xml version="1.0" encoding="UTF-8"?>

<!-- generated on 2026-01-28T18:51:52.306253+02:00 by Eclipse SUMO GUI 1.25.0
<sumoConfiguration xmlns:xsi="http://www.w3.org/2001/XMLSchema-instance" xsi:noNamespaceSchemaLocation="http://sumo.dlr.de/xsd/sumoConfiguration.xsd">

    <input>
        <net-file value="models/JS270_DEMO/cfgFiles/../net/JS270_def.net.xml"/>
        <route-files value="models/JS270_DEMO/cfgFiles/../rou/JS270_cars_trucks.rou.xml,models/JS270_DEMO/cfgFiles/ ../rou/JS270_trams2.rou.xml,models/JS270_DEMO/cfgFiles/ ../rou/JS270_bikes.rou.xml"/>
        <additional-files value="models/JS270_DEMO/cfgFiles/../add/JR_vehicletypes.add.xml,models/JS270_DEMO/cfgFiles/ ../tll/ft270_1.tll.xml,models/JS270_DEMO/cfgFiles/ ../add/JS270_stations.add.xml,models/JS270_DEMO/cfgFiles/         ../add/JS270_e1_dets.add.xml,models/JS270_DEMO/cfgFiles/ ../add/JS270_e3s_dets.add.xml"/>
    </input>

    <output>
        <output-prefix value="JS_"/>
    </output>

    <time>
        <begin value="0"/>
        <end value="36000000"/>
        <step-length value="0.1"/>
    </time>

    <processing>
        <lateral-resolution value="0.5"/>
        <ignore-route-errors value="0"/>
        <collision.action value="warn"/>
        <scale value="1.0"/>
        <time-to-teleport value="300"/>
        <random-depart-offset value="60"/>
        <parking.maneuver value="false"/>
    </processing>

    <report>
        <verbose value="t"/>
        <no-step-log value="f"/>
        <step-log.period value="1000"/>
    </report>

    <traci_server>
        <remote-port value="50996"/>
    </traci_server>

    <gui_only>
        <gui-settings-file value="models/JS270_DEMO/cfgFiles/../gui/JS270_near.guicfg.xml"/>
        <quit-on-end value="true"/>
        <start value="true"/>
        <delay value="300"/>
        <demo value="0"/>
    </gui_only>

</sumoConfiguration>
-->

<e3Detector xmlns:xsi="http://www.w3.org/2001/XMLSchema-instance" xsi:noNamespaceSchemaLocation="http://sumo.dlr.de/xsd/det_e3_file.xsd">
   <interval begin="0.00" end="137.30" id="e3Det_270_Tyyn" meanTravelTime="5.28" meanOverlapTravelTime="8.88" meanSpeed="8.01" meanHaltsPerVehicle="0.25" meanTimeLoss="4.46" vehicleSum="24" meanSpeedWithin="3.42" meanHaltsPerVehicleWithin="1.00" meanDurationWithin="12.80" vehicleSumWithin="1" meanIntervalSpeedWithin="3.42" meanIntervalHaltsPerVehicleWithin="1.00" meanIntervalDurationWithin="12.80" meanTimeLossWithin="8.43"/>
   <interval begin="0.00" end="137.30" id="e3Det_270_Tyyn_Left" meanTravelTime="12.16" meanOverlapTravelTime="18.54" meanSpeed="2.45" meanHaltsPerVehicle="0.83" meanTimeLoss="15.89" vehicleSum="6" meanSpeedWithin="0.57" meanHaltsPerVehicleWithin="1.00" meanDurationWithin="41.15" vehicleSumWithin="1" meanIntervalSpeedWithin="0.57" meanIntervalHaltsPerVehicleWithin="1.00" meanIntervalDurationWithin="41.15" meanTimeLossWithin="38.80"/>
   <interval begin="0.00" end="137.30" id="e3Det_270_Jatk" meanTravelTime="11.84" meanOverlapTravelTime="15.31" meanSpeed="7.34" meanHaltsPerVehicle="0.22" meanTimeLoss="9.64" vehicleSum="18" meanSpeedWithin="4.37" meanHaltsPerVehicleWithin="0.75" meanDurationWithin="8.46" vehicleSumWithin="4" meanIntervalSpeedWithin="4.37" meanIntervalHaltsPerVehicleWithin="0.75" meanIntervalDurationWithin="8.46" meanTimeLossWithin="5.31"/>
   <interval begin="0.00" end="137.30" id="e3Det_270_Jatk_Right" meanTravelTime="4.31" meanOverlapTravelTime="4.81" meanSpeed="9.98" meanHaltsPerVehicle="0.00" meanTimeLoss="0.01" vehicleSum="3" meanSpeedWithin="-1.00" meanHaltsPerVehicleWithin="-1.00" meanDurationWithin="-1.00" vehicleSumWithin="0" meanIntervalSpeedWithin="-1.00" meanIntervalHaltsPerVehicleWithin="-1.00" meanIntervalDurationWithin="-1.00" meanTimeLossWithin="-1.00"/>
   <interval begin="0.00" end="137.30" id="e3Det_270_Vali" meanTravelTime="7.13" meanOverlapTravelTime="11.58" meanSpeed="5.74" meanHaltsPerVehicle="0.50" meanTimeLoss="7.04" vehicleSum="4" meanSpeedWithin="0.48" meanHaltsPerVehicleWithin="1.00" meanDurationWithin="44.83" vehicleSumWithin="8" meanIntervalSpeedWithin="0.48" meanIntervalHaltsPerVehicleWithin="1.00" meanIntervalDurationWithin="44.83" meanTimeLossWithin="42.48"/>
   <interval begin="0.00" end="137.30" id="e3Det_270_Tyyn_Tram" meanTravelTime="-1.00" meanOverlapTravelTime="-1.00" meanSpeed="-1.00" meanHaltsPerVehicle="-1.00" meanTimeLoss="-1.00" vehicleSum="0" meanSpeedWithin="-1.00" meanHaltsPerVehicleWithin="-1.00" meanDurationWithin="-1.00" vehicleSumWithin="0" meanIntervalSpeedWithin="-1.00" meanIntervalHaltsPerVehicleWithin="-1.00" meanIntervalDurationWithin="-1.00" meanTimeLossWithin="-1.00"/>
   <interval begin="0.00" end="137.30" id="e3Det_270_Vali_Tram" meanTravelTime="-1.00" meanOverlapTravelTime="-1.00" meanSpeed="-1.00" meanHaltsPerVehicle="-1.00" meanTimeLoss="-1.00" vehicleSum="0" meanSpeedWithin="0.88" meanHaltsPerVehicleWithin="2.00" meanDurationWithin="38.80" vehicleSumWithin="1" meanIntervalSpeedWithin="0.88" meanIntervalHaltsPerVehicleWithin="2.00" meanIntervalDurationWithin="38.80" meanTimeLossWithin="36.23"/>
   <interval begin="0.00" end="137.30" id="e3Det_270_Jatk_Tram" meanTravelTime="-1.00" meanOverlapTravelTime="-1.00" meanSpeed="-1.00" meanHaltsPerVehicle="-1.00" meanTimeLoss="-1.00" vehicleSum="0" meanSpeedWithin="-1.00" meanHaltsPerVehicleWithin="-1.00" meanDurationWithin="-1.00" vehicleSumWithin="0" meanIntervalSpeedWithin="-1.00" meanIntervalHaltsPerVehicleWithin="-1.00" meanIntervalDurationWithin="-1.00" meanTimeLossWithin="-1.00"/>
</e3Detector>
