<?xml version="1.0" encoding="UTF-8"?>

<!-- generated on 2023-08-23 16:46:52 by Eclipse SUMO netedit Version 1.16.0
<configuration xmlns:xsi="http://www.w3.org/2001/XMLSchema-instance" xsi:noNamespaceSchemaLocation="http://sumo.dlr.de/xsd/netconvertConfiguration.xsd">

    <input>
        <sumo-net-file value="C:\Deve\Sumo\traffic_indicators\models\JR154_offline_full\JR_croptest9.net.xml"/>
    </input>

    <output>
        <output-file value="C:\Deve\Sumo\traffic_indicators\models\JR154_offline_full\JR_croptest9.net.xml"/>
        <output.street-names value="true"/>
    </output>

    <processing>
        <geometry.min-radius.fix.railways value="false"/>
        <geometry.max-grade.fix value="false"/>
        <offset.disable-normalization value="true"/>
        <lefthand value="0"/>
    </processing>

    <junctions>
        <no-internal-links value="false"/>
        <no-turnarounds value="true"/>
        <junctions.corner-detail value="8"/>
        <junctions.internal-link-detail value="8"/>
        <junctions.limit-turn-speed value="5.50"/>
        <rectangular-lane-cut value="0"/>
    </junctions>

    <pedestrian>
        <walkingareas value="1"/>
    </pedestrian>

</configuration>
-->

<net version="1.16" junctionCornerDetail="8" junctionLinkDetail="8" walkingareas="true" limitTurnSpeed="5.50" xmlns:xsi="http://www.w3.org/2001/XMLSchema-instance" xsi:noNamespaceSchemaLocation="http://sumo.dlr.de/xsd/net_file.xsd">

    <location netOffset="-380370.77,-6669419.92" convBoundary="4065.27,1366.55,4342.38,1864.20" origBoundary="24.684576,59.443955,29.646314,60.189319" projParameter="+proj=utm +zone=35 +ellps=WGS84 +datum=WGS84 +units=m +no_defs"/>

    <type id="cycleway.lane" allow="bicycle" bikeLaneWidth="1.00"/>
    <type id="cycleway.lane|highway.residential" priority="3" numLanes="1" speed="13.89" disallow="pedestrian tram rail_urban rail rail_electric rail_fast ship" oneway="0" sidewalkWidth="2.00" bikeLaneWidth="1.00"/>
    <type id="cycleway.lane|highway.secondary" priority="11" numLanes="1" speed="27.78" disallow="pedestrian tram rail_urban rail rail_electric rail_fast ship" oneway="0" sidewalkWidth="3.00" bikeLaneWidth="1.00"/>
    <type id="cycleway.lane|highway.tertiary" priority="10" numLanes="1" speed="22.22" disallow="pedestrian tram rail_urban rail rail_electric rail_fast ship" oneway="0" sidewalkWidth="3.00" bikeLaneWidth="1.00"/>
    <type id="cycleway.opposite_lane" allow="bicycle" bikeLaneWidth="1.00"/>
    <type id="cycleway.opposite_track" allow="bicycle" bikeLaneWidth="1.50"/>
    <type id="cycleway.track" allow="bicycle" bikeLaneWidth="1.50"/>
    <type id="cycleway.track|highway.cycleway" priority="1" numLanes="1" speed="13.89" allow="bicycle" oneway="0" width="3.20" bikeLaneWidth="1.50"/>
    <type id="highway.bridleway" priority="1" numLanes="1" speed="2.78" allow="pedestrian" oneway="1" width="2.00"/>
    <type id="highway.bus_guideway" priority="1" numLanes="1" speed="27.78" allow="bus" oneway="1"/>
    <type id="highway.cycleway" priority="1" numLanes="1" speed="8.33" allow="bicycle" oneway="0" width="1.00"/>
    <type id="highway.footway" priority="1" numLanes="1" speed="2.78" allow="pedestrian" oneway="1" width="2.00"/>
    <type id="highway.ford" priority="1" numLanes="1" speed="2.78" allow="army" oneway="0"/>
    <type id="highway.living_street" priority="2" numLanes="1" speed="2.78" disallow="tram rail_urban rail rail_electric rail_fast ship" oneway="0"/>
    <type id="highway.motorway" priority="14" numLanes="2" speed="39.44" allow="private emergency authority army vip passenger hov taxi bus coach delivery truck trailer motorcycle evehicle custom1 custom2" oneway="1"/>
    <type id="highway.motorway_link" priority="9" numLanes="1" speed="22.22" allow="private emergency authority army vip passenger hov taxi bus coach delivery truck trailer motorcycle evehicle custom1 custom2" oneway="1"/>
    <type id="highway.path" priority="1" numLanes="1" speed="2.78" allow="pedestrian bicycle" oneway="1" width="2.00"/>
    <type id="highway.pedestrian" priority="1" numLanes="1" speed="2.78" allow="pedestrian" oneway="1" width="2.00"/>
    <type id="highway.primary" priority="12" numLanes="2" speed="27.78" disallow="pedestrian tram rail_urban rail rail_electric rail_fast ship" oneway="0" sidewalkWidth="3.00"/>
    <type id="highway.primary_link" priority="7" numLanes="1" speed="22.22" disallow="pedestrian tram rail_urban rail rail_electric rail_fast ship" oneway="0" sidewalkWidth="3.00"/>
    <type id="highway.raceway" priority="15" numLanes="2" speed="83.33" allow="vip" oneway="0"/>
    <type id="highway.residential" priority="3" numLanes="1" speed="13.89" disallow="pedestrian tram rail_urban rail rail_electric rail_fast ship" oneway="0" sidewalkWidth="2.00"/>
    <type id="highway.secondary" priority="11" numLanes="1" speed="27.78" disallow="pedestrian tram rail_urban rail rail_electric rail_fast ship" oneway="0" sidewalkWidth="3.00"/>
    <type id="highway.secondary_link" priority="6" numLanes="1" speed="22.22" disallow="pedestrian tram rail_urban rail rail_electric rail_fast ship" oneway="0" sidewalkWidth="3.00"/>
    <type id="highway.service" priority="1" numLanes="1" speed="5.56" allow="pedestrian delivery bicycle" oneway="0"/>
    <type id="highway.stairs" priority="1" numLanes="1" speed="1.39" allow="pedestrian" oneway="1" width="2.00"/>
    <type id="highway.step" priority="1" numLanes="1" speed="1.39" allow="pedestrian" oneway="1" width="2.00"/>
    <type id="highway.steps" priority="1" numLanes="1" speed="1.39" allow="pedestrian" oneway="1" width="2.00"/>
    <type id="highway.tertiary" priority="10" numLanes="1" speed="22.22" disallow="pedestrian tram rail_urban rail rail_electric rail_fast ship" oneway="0" sidewalkWidth="3.00"/>
    <type id="highway.tertiary_link" priority="5" numLanes="1" speed="22.22" disallow="pedestrian tram rail_urban rail rail_electric rail_fast ship" oneway="0" sidewalkWidth="2.00"/>
    <type id="highway.track" priority="1" numLanes="1" speed="5.56" disallow="tram rail_urban rail rail_electric rail_fast ship" oneway="0"/>
    <type id="highway.trunk" priority="13" numLanes="2" speed="27.78" disallow="pedestrian bicycle tram rail_urban rail rail_electric rail_fast ship" oneway="0"/>
    <type id="highway.trunk_link" priority="8" numLanes="1" speed="22.22" disallow="pedestrian bicycle tram rail_urban rail rail_electric rail_fast ship" oneway="0"/>
    <type id="highway.unclassified" priority="4" numLanes="1" speed="13.89" disallow="pedestrian tram rail_urban rail rail_electric rail_fast ship" oneway="0" sidewalkWidth="2.00"/>
    <type id="highway.unsurfaced" priority="1" numLanes="1" speed="8.33" disallow="tram rail_urban rail rail_electric rail_fast ship" oneway="0"/>
    <type id="railway.highspeed" priority="21" numLanes="1" speed="69.44" allow="rail_fast" oneway="1"/>
    <type id="railway.light_rail" priority="19" numLanes="1" speed="27.78" allow="rail_urban" oneway="1"/>
    <type id="railway.preserved" priority="16" numLanes="1" speed="27.78" allow="rail" oneway="1"/>
    <type id="railway.rail" priority="20" numLanes="1" speed="44.44" allow="rail" oneway="1"/>
    <type id="railway.subway" priority="18" numLanes="1" speed="27.78" allow="rail_urban" oneway="1"/>
    <type id="railway.tram" priority="17" numLanes="1" speed="13.89" allow="tram" oneway="1"/>

    <edge id=":270_Tyyn_Vali_0" function="internal">
        <lane id=":270_Tyyn_Vali_0_0" index="0" allow="tram" speed="13.89" length="35.65" shape="4279.98,1661.46,0.04 4277.11,1660.03,0.04 4272.31,1658.57,0.03 4266.31,1657.15,0.02 4259.86,1655.88,0.02 4253.72,1654.82,0.01 4248.63,1654.07,0.00 4245.34,1653.71"/>
    </edge>
    <edge id=":270_Tyyn_Vali_1" function="internal">
        <lane id=":270_Tyyn_Vali_1_0" index="0" allow="tram" speed="13.89" length="31.45" shape="4279.98,1661.46,0.04 4277.68,1659.40,0.04 4274.39,1656.25,0.03 4270.57,1652.41,0.02 4266.69,1648.26,0.02 4263.21,1644.21,0.01 4260.60,1640.65,0.00 4259.33,1637.98"/>
    </edge>
    <edge id=":270_Tyyn_Vali_2" function="internal">
        <lane id=":270_Tyyn_Vali_2_0" index="0" disallow="pedestrian tram rail_urban rail rail_electric rail_fast ship" speed="8.33" length="20.46" shape="4274.70,1636.77 4274.88,1638.40 4275.60,1640.23 4276.85,1642.26 4278.64,1644.48 4280.96,1646.89 4283.82,1649.49 4287.22,1652.29"/>
        <lane id=":270_Tyyn_Vali_2_1" index="1" disallow="pedestrian tram rail_urban rail rail_electric rail_fast ship" speed="8.33" length="23.45" shape="4271.50,1636.63 4271.68,1638.72 4272.46,1640.97 4273.83,1643.40 4275.79,1646.00 4278.35,1648.76 4281.50,1651.70 4285.24,1654.80"/>
    </edge>
    <edge id=":270_Tyyn_Vali_4" function="internal">
        <lane id=":270_Tyyn_Vali_4_0" index="0" disallow="pedestrian tram rail_urban rail rail_electric rail_fast ship" speed="8.33" length="5.03" shape="4268.30,1636.50 4267.69,1641.49"/>
    </edge>
    <edge id=":270_Tyyn_Vali_12" function="internal">
        <lane id=":270_Tyyn_Vali_12_0" index="0" disallow="pedestrian tram rail_urban rail rail_electric rail_fast ship" speed="8.33" length="33.27" shape="4267.69,1641.49 4267.48,1643.20 4265.83,1648.82 4263.34,1653.35 4260.02,1656.79 4255.86,1659.13 4250.87,1660.39 4245.05,1660.56"/>
    </edge>
    <edge id=":270_Tyyn_Vali_5" function="internal">
        <lane id=":270_Tyyn_Vali_5_0" index="0" allow="tram" speed="13.89" length="28.37" shape="4262.88,1638.18 4264.24,1640.66,0.00 4266.67,1643.84,0.01 4269.80,1647.41,0.02 4273.25,1651.04,0.02 4276.66,1654.41,0.03 4279.64,1657.21,0.04 4281.82,1659.13,0.04"/>
    </edge>
    <edge id=":270_Tyyn_Vali_6" function="internal">
        <lane id=":270_Tyyn_Vali_6_0" index="0" disallow="pedestrian tram rail_urban rail rail_electric rail_fast ship" speed="6.30" length="8.35" shape="4245.85,1642.92 4247.11,1642.86 4248.19,1642.58 4249.09,1642.05 4249.80,1641.29 4250.34,1640.30 4250.70,1639.07 4250.89,1637.61"/>
    </edge>
    <edge id=":270_Tyyn_Vali_7" function="internal">
        <lane id=":270_Tyyn_Vali_7_0" index="0" disallow="pedestrian tram rail_urban rail rail_electric rail_fast ship" speed="8.33" length="42.09" shape="4245.85,1642.92 4249.30,1643.19 4254.86,1643.80 4261.76,1644.76 4269.22,1646.08 4276.46,1647.76 4282.72,1649.83 4287.22,1652.29"/>
        <lane id=":270_Tyyn_Vali_7_1" index="1" disallow="pedestrian tram rail_urban rail rail_electric rail_fast ship" speed="8.33" length="42.09" shape="4245.85,1642.92 4249.19,1643.33 4254.47,1644.29 4260.98,1645.74 4268.01,1647.60 4274.87,1649.78 4280.85,1652.21 4285.24,1654.80"/>
    </edge>
    <edge id=":270_Tyyn_Vali_9" function="internal">
        <lane id=":270_Tyyn_Vali_9_0" index="0" allow="tram" speed="13.89" length="37.46" shape="4245.48,1650.60 4248.87,1651.01,0.00 4254.19,1651.88,0.01 4260.67,1653.09,0.02 4267.47,1654.54,0.02 4273.80,1656.10,0.03 4278.85,1657.67,0.04 4281.82,1659.13,0.04"/>
    </edge>
    <edge id=":270_Tyyn_Vali_10" function="internal">
        <lane id=":270_Tyyn_Vali_10_0" index="0" disallow="pedestrian bicycle tram rail_urban rail rail_electric rail_fast ship" speed="8.33" length="30.19" shape="4273.40,1669.78 4269.70,1667.23 4265.34,1665.15 4260.63,1663.51 4255.92,1662.26 4251.53,1661.38 4247.79,1660.82 4245.05,1660.56"/>
    </edge>
    <edge id=":270_Tyyn_Vali_11" function="internal">
        <lane id=":270_Tyyn_Vali_11_0" index="0" disallow="pedestrian bicycle tram rail_urban rail rail_electric rail_fast ship" speed="8.33" length="11.17" shape="4275.39,1667.27 4268.77,1661.40 4267.09,1659.80"/>
    </edge>
    <edge id=":270_Tyyn_Vali_13" function="internal">
        <lane id=":270_Tyyn_Vali_13_0" index="0" disallow="pedestrian bicycle tram rail_urban rail rail_electric rail_fast ship" speed="8.33" length="28.01" shape="4267.09,1659.80 4263.19,1656.08 4258.65,1651.30 4255.15,1647.07 4252.69,1643.37 4251.27,1640.22 4250.89,1637.61"/>
    </edge>
    <edge id=":4450740604_0" function="internal">
        <lane id=":4450740604_0_0" index="0" allow="bicycle" speed="8.33" length="5.06" width="1.00" shape="4155.15,1636.08,-0.04 4156.08,1636.25,-0.04 4156.79,1636.37,-0.04 4157.37,1636.47,-0.04 4157.91,1636.53,-0.04 4158.50,1636.59,-0.04 4159.22,1636.65,-0.04 4160.16,1636.72,-0.04"/>
    </edge>
    <edge id=":4450740605_0" function="internal">
        <lane id=":4450740605_0_0" index="0" disallow="pedestrian tram rail_urban rail rail_electric rail_fast ship" speed="8.33" length="5.19" shape="4154.72,1639.44,-0.06 4155.67,1639.59,-0.06 4156.41,1639.70,-0.06 4157.01,1639.77,-0.06 4157.56,1639.82,-0.06 4158.17,1639.86,-0.06 4158.91,1639.90,-0.06 4159.87,1639.94,-0.06"/>
    </edge>
    <edge id=":6542527967_w0" function="walkingarea">
        <lane id=":6542527967_w0_0" index="0" allow="pedestrian" speed="2.78" length="0.34" width="2.00" shape="4143.43,1660.11,-1.00 4143.63,1658.12,-1.00 4142.78,1659.93,-1.00 4142.95,1660.01,-1.00 4143.01,1660.04,-1.00 4143.07,1660.06,-1.00 4143.12,1660.07,-1.00 4143.18,1660.08,-1.00 4143.25,1660.09,-1.00 4143.33,1660.10,-1.00"/>
    </edge>
    <edge id=":6542536887_w0" function="walkingarea">
        <lane id=":6542536887_w0_0" index="0" allow="pedestrian" speed="2.78" length="0.10" width="2.00" shape="4108.41,1608.35,-0.04 4109.51,1606.67,-0.04 4108.41,1608.35,-0.04"/>
    </edge>
    <edge id=":6542536898_w0" function="walkingarea">
        <lane id=":6542536898_w0_0" index="0" allow="pedestrian" speed="2.78" length="3.87" width="2.00" shape="4160.34,1633.48,-0.03 4160.44,1631.48,-0.03 4155.54,1631.14,-0.03 4155.36,1633.13,-0.03 4155.94,1633.26,-0.03 4156.18,1633.38,-0.03 4156.37,1633.53,-0.03 4156.53,1633.71,-0.03 4156.65,1633.93,-0.03 4156.73,1634.19,-0.03 4156.77,1634.48,-0.03 4156.77,1634.80,-0.03 4158.77,1634.90,-0.03 4158.87,1634.32,-0.03 4158.98,1634.08,-0.03 4159.12,1633.88,-0.03 4159.29,1633.72,-0.03 4159.50,1633.60,-0.03 4159.75,1633.52,-0.03 4160.03,1633.48,-0.03"/>
    </edge>
    <edge id=":6548110424_0" function="internal">
        <lane id=":6548110424_0_0" index="0" allow="bicycle" speed="8.33" length="8.10" width="1.00" shape="4266.95,1385.75 4267.67,1384.48 4268.08,1383.44 4268.26,1382.53 4268.28,1381.63 4268.22,1380.64 4268.16,1379.45 4268.19,1377.95"/>
    </edge>
    <edge id=":6548110424_1" function="internal">
        <lane id=":6548110424_1_0" index="0" disallow="pedestrian tram rail_urban rail rail_electric rail_fast ship" speed="8.33" length="8.06" shape="4269.83,1386.12 4270.29,1378.07"/>
    </edge>
    <edge id=":760001870_0" function="internal">
        <lane id=":760001870_0_0" index="0" disallow="pedestrian bicycle tram rail_urban rail rail_electric rail_fast ship" speed="8.33" length="10.69" shape="4302.60,1816.06,0.12 4303.25,1817.65,0.13 4303.92,1818.77,0.13 4304.66,1819.57,0.14 4305.50,1820.22,0.14 4306.49,1820.84,0.14 4307.67,1821.61,0.15 4309.08,1822.67,0.15"/>
        <lane id=":760001870_0_1" index="1" disallow="pedestrian bicycle tram rail_urban rail rail_electric rail_fast ship" speed="8.33" length="10.69" shape="4302.60,1816.06,0.12 4303.16,1817.90,0.13 4303.52,1819.39,0.13 4303.82,1820.63,0.14 4304.18,1821.73,0.14 4304.74,1822.78,0.14 4305.66,1823.89,0.15 4307.05,1825.15,0.15"/>
        <lane id=":760001870_0_2" index="2" disallow="pedestrian bicycle tram rail_urban rail rail_electric rail_fast ship" speed="8.33" length="10.69" shape="4299.57,1817.11,0.13 4300.25,1819.26,0.13 4300.71,1820.99,0.13 4301.10,1822.42,0.14 4301.57,1823.68,0.14 4302.28,1824.88,0.14 4303.38,1826.16,0.15 4305.02,1827.63,0.15"/>
    </edge>
    <edge id=":Mec_Jat_jp2_0" function="internal">
        <lane id=":Mec_Jat_jp2_0_0" index="0" allow="bicycle" speed="8.33" length="7.62" width="1.00" shape="4336.94,1854.69,0.02 4332.69,1861.02,0.01"/>
    </edge>
    <edge id=":Mec_Jat_jp2_1" function="internal">
        <lane id=":Mec_Jat_jp2_1_0" index="0" allow="bicycle" speed="13.89" length="7.65" width="1.00" shape="4331.83,1860.50,0.01 4336.10,1854.15,0.02"/>
    </edge>
    <edge id=":Tyy_Val_jp0_0" function="internal">
        <lane id=":Tyy_Val_jp0_0_0" index="0" allow="bicycle" speed="3.07" length="1.93" width="1.00" shape="4241.10,1663.83,-0.02 4241.04,1664.11,-0.02 4240.91,1664.28,-0.02 4240.72,1664.35,-0.02 4240.47,1664.35,-0.02 4240.17,1664.31,-0.02 4239.85,1664.27,-0.02 4239.50,1664.23,-0.02"/>
    </edge>
    <edge id=":Tyy_Val_jp0_c0" function="crossing" crossingEdges="-Vali_p12">
        <lane id=":Tyy_Val_jp0_c0_0" index="0" allow="pedestrian" speed="2.78" length="1.00" width="1.00" shape="4239.97,1664.76,-0.02 4240.03,1663.76,-0.02"/>
    </edge>
    <edge id=":Tyy_Val_jp0_w0" function="walkingarea">
        <lane id=":Tyy_Val_jp0_w0_0" index="0" allow="pedestrian" speed="2.78" length="1.08" width="1.00" shape="4240.60,1663.80,-0.02 4239.60,1663.75,-0.02 4239.71,1663.76,-0.02 4239.88,1663.81,-0.02 4240.04,1663.88,-0.02 4240.19,1663.95,-0.02 4240.32,1664.00,-0.02 4240.43,1664.03,-0.02 4240.52,1664.01,-0.02 4240.58,1663.94,-0.02"/>
    </edge>
    <edge id=":Tyy_Val_jp0_w1" function="walkingarea">
        <lane id=":Tyy_Val_jp0_w1_0" index="0" allow="pedestrian" speed="2.78" length="1.72" width="2.00" shape="4239.47,1664.73,-0.02 4239.44,1665.37,-0.04 4239.32,1667.37,-0.04 4241.55,1664.15,-0.02 4241.43,1664.37,-0.02 4241.25,1664.53,-0.02 4241.02,1664.65,-0.02 4240.76,1664.71,-0.02 4240.46,1664.75,-0.02 4240.14,1664.76,-0.02 4239.81,1664.75,-0.02"/>
    </edge>
    <edge id=":Tyy_Val_jp1_0" function="internal">
        <lane id=":Tyy_Val_jp1_0_0" index="0" disallow="pedestrian tram rail_urban rail rail_electric rail_fast ship" speed="8.33" length="2.71" shape="4242.24,1660.39,-0.02 4239.53,1660.24,-0.03"/>
    </edge>
    <edge id=":Tyy_Val_jp1_1" function="internal">
        <lane id=":Tyy_Val_jp1_1_0" index="0" allow="bicycle" speed="5.55" length="3.91" width="1.00" shape="4241.37,1658.25,-0.03 4241.18,1662.16,-0.02"/>
    </edge>
    <edge id=":Tyy_Val_jp1_c0" function="crossing" crossingEdges="-Vali12">
        <lane id=":Tyy_Val_jp1_c0_0" index="0" allow="pedestrian" speed="2.78" length="3.20" width="1.00" shape="4239.95,1661.86,-0.03 4240.12,1658.66,-0.03"/>
    </edge>
    <edge id=":Tyy_Val_jp1_w0" function="walkingarea">
        <lane id=":Tyy_Val_jp1_w0_0" index="0" allow="pedestrian" speed="2.78" length="0.50" width="1.00" shape="4240.87,1658.26,-0.03 4239.87,1658.20,-0.03 4239.62,1658.64,-0.03 4239.83,1658.65,-0.03 4240.04,1658.67,-0.03 4240.23,1658.69,-0.03 4240.40,1658.70,-0.03 4240.55,1658.68,-0.03 4240.68,1658.63,-0.03 4240.78,1658.54,-0.03 4240.84,1658.41,-0.03"/>
    </edge>
    <edge id=":Tyy_Val_jp1_w1" function="walkingarea">
        <lane id=":Tyy_Val_jp1_w1_0" index="0" allow="pedestrian" speed="2.78" length="1.27" width="1.00" shape="4239.45,1661.83,-0.03 4239.68,1662.11,-0.02 4240.68,1662.15,-0.02 4240.67,1661.96,-0.02 4240.61,1661.84,-0.03 4240.52,1661.78,-0.03 4240.39,1661.76,-0.03 4240.23,1661.76,-0.03 4240.06,1661.79,-0.03 4239.86,1661.81,-0.03 4239.66,1661.83,-0.03"/>
    </edge>
    <edge id=":Tyy_Val_jp2_0" function="internal">
        <lane id=":Tyy_Val_jp2_0_0" index="0" allow="tram" speed="13.89" length="2.53" shape="4242.40,1653.53 4239.88,1653.38,-0.00"/>
    </edge>
    <edge id=":Tyy_Val_jp2_1" function="internal">
        <lane id=":Tyy_Val_jp2_1_0" index="0" allow="bicycle" speed="8.33" length="10.12" width="1.00" shape="4241.98,1646.51,-0.01 4241.47,1656.62,-0.03"/>
    </edge>
    <edge id=":Tyy_Val_jp2_2" function="internal">
        <lane id=":Tyy_Val_jp2_2_0" index="0" allow="tram" speed="13.89" length="2.53" shape="4240.05,1650.26,-0.00 4242.57,1650.41"/>
    </edge>
    <edge id=":Tyy_Val_jp2_c0" function="crossing" crossingEdges="-Vali_R12 Vali_R12">
        <lane id=":Tyy_Val_jp2_c0_0" index="0" allow="pedestrian" speed="2.78" length="6.32" width="1.00" shape="4240.29,1655.00,-0.00 4240.63,1648.69,-0.00"/>
    </edge>
    <edge id=":Tyy_Val_jp2_w0" function="walkingarea">
        <lane id=":Tyy_Val_jp2_w0_0" index="0" allow="pedestrian" speed="2.78" length="1.57" width="2.00" shape="4241.48,1646.55,-0.01 4240.48,1646.50,-0.01 4240.23,1646.83,-0.02 4240.11,1648.83,-0.02 4240.14,1648.66,-0.00 4240.52,1648.65,-0.00 4240.81,1648.56,-0.00 4241.04,1648.41,-0.00 4241.20,1648.20,-0.01 4241.31,1647.94,-0.01 4241.39,1647.63,-0.01 4241.43,1647.28,-0.01 4241.46,1646.90,-0.01"/>
    </edge>
    <edge id=":Tyy_Val_jp2_w1" function="walkingarea">
        <lane id=":Tyy_Val_jp2_w1_0" index="0" allow="pedestrian" speed="2.78" length="1.18" width="2.00" shape="4239.79,1654.97,-0.00 4239.82,1654.60,-0.03 4239.72,1656.60,-0.03 4239.97,1656.53,-0.03 4240.97,1656.59,-0.03 4240.97,1656.28,-0.03 4240.96,1655.99,-0.02 4240.91,1655.74,-0.02 4240.83,1655.53,-0.02 4240.71,1655.34,-0.01 4240.55,1655.20,-0.01 4240.35,1655.09,-0.01 4240.09,1655.01,-0.00"/>
    </edge>
    <edge id=":Tyy_Val_jp3_0" function="internal">
        <lane id=":Tyy_Val_jp3_0_0" index="0" allow="bicycle" speed="6.41" length="3.75" width="1.00" shape="4243.74,1636.07,-0.01 4243.25,1636.54,-0.01 4242.91,1636.94,-0.01 4242.67,1637.31,-0.01 4242.53,1637.70,-0.01 4242.45,1638.15,-0.01 4242.40,1638.69,-0.01 4242.36,1639.38,-0.01"/>
    </edge>
    <edge id=":Tyy_Val_jp3_1" function="internal">
        <lane id=":Tyy_Val_jp3_1_0" index="0" allow="bicycle" speed="8.33" length="4.83" width="1.00" shape="4239.16,1638.06,-0.02 4239.99,1637.72,-0.02 4240.60,1637.43,-0.02 4241.08,1637.13,-0.02 4241.49,1636.81,-0.02 4241.91,1636.42,-0.01 4242.42,1635.94,-0.01 4243.07,1635.32,-0.01"/>
    </edge>
    <edge id=":Tyy_Val_jp3_2" function="internal">
        <lane id=":Tyy_Val_jp3_2_0" index="0" allow="bicycle" speed="3.94" length="2.28" width="1.00" shape="4239.16,1638.06,-0.02 4240.04,1637.77,-0.02 4240.79,1637.65,-0.02 4241.38,1637.68,-0.02"/>
    </edge>
    <edge id=":Tyy_Val_jp3_3" function="internal">
        <lane id=":Tyy_Val_jp3_3_0" index="0" allow="bicycle" speed="3.94" length="2.16" width="1.00" shape="4241.38,1637.68,-0.02 4241.84,1637.87,-0.02 4242.16,1638.21,-0.02 4242.33,1638.71,-0.01 4242.36,1639.38,-0.01"/>
    </edge>
    <edge id=":Tyy_Val_jp3_c0" function="crossing" crossingEdges="Vali_p12">
        <lane id=":Tyy_Val_jp3_c0_0" index="0" allow="pedestrian" speed="2.78" length="1.00" width="1.00" shape="4239.81,1638.35,-0.02 4239.45,1637.41,-0.02"/>
    </edge>
    <edge id=":Tyy_Val_jp3_w0" function="walkingarea">
        <lane id=":Tyy_Val_jp3_w0_0" index="0" allow="pedestrian" speed="2.78" length="2.93" width="2.00" shape="4242.74,1634.95,-0.01 4242.07,1634.21,-0.01 4239.16,1635.82,-0.02 4239.04,1637.81,-0.02 4238.98,1637.59,-0.02 4239.62,1637.34,-0.02 4240.12,1637.11,-0.02 4240.53,1636.89,-0.02 4240.87,1636.66,-0.02 4241.18,1636.42,-0.02 4241.48,1636.14,-0.01 4241.83,1635.81,-0.01 4242.23,1635.42,-0.01"/>
    </edge>
    <edge id=":Tyy_Val_jp3_w1" function="walkingarea">
        <lane id=":Tyy_Val_jp3_w1_0" index="0" allow="pedestrian" speed="2.78" length="1.73" width="1.00" shape="4239.34,1638.53,-0.02 4240.88,1639.06,-0.01 4241.88,1639.11,-0.01 4241.85,1638.98,-0.01 4241.77,1638.68,-0.01 4241.63,1638.45,-0.02 4241.41,1638.29,-0.02 4241.13,1638.20,-0.02 4240.78,1638.17,-0.02 4240.37,1638.22,-0.02 4239.89,1638.34,-0.02"/>
    </edge>
    <edge id=":Tyy_Val_jp4_0" function="internal">
        <lane id=":Tyy_Val_jp4_0_0" index="0" allow="bicycle" speed="8.33" length="3.39" width="1.00" shape="4242.28,1640.95,-0.01 4242.09,1644.34,-0.00"/>
    </edge>
    <edge id=":Tyy_Val_jp4_1" function="internal">
        <lane id=":Tyy_Val_jp4_1_0" index="0" disallow="pedestrian tram rail_urban rail rail_electric rail_fast ship" speed="8.33" length="2.76" shape="4240.28,1642.65,-0.01 4243.03,1642.78"/>
    </edge>
    <edge id=":Tyy_Val_jp4_c0" function="crossing" crossingEdges="Vali12">
        <lane id=":Tyy_Val_jp4_c0_0" index="0" allow="pedestrian" speed="2.78" length="3.20" width="1.00" shape="4240.71,1644.27,-0.00 4240.84,1641.07,-0.00"/>
    </edge>
    <edge id=":Tyy_Val_jp4_w0" function="walkingarea">
        <lane id=":Tyy_Val_jp4_w0_0" index="0" allow="pedestrian" speed="2.78" length="0.48" width="1.00" shape="4241.78,1640.89,-0.01 4240.78,1640.83,-0.01 4240.35,1641.05,-0.00 4240.58,1641.08,-0.01 4240.81,1641.13,-0.01 4241.03,1641.19,-0.01 4241.23,1641.25,-0.01 4241.40,1641.28,-0.01 4241.55,1641.29,-0.01 4241.66,1641.24,-0.01 4241.74,1641.12,-0.01"/>
    </edge>
    <edge id=":Tyy_Val_jp4_w1" function="walkingarea">
        <lane id=":Tyy_Val_jp4_w1_0" index="0" allow="pedestrian" speed="2.78" length="0.39" width="1.00" shape="4240.21,1644.25,-0.00 4240.59,1644.30,-0.00 4241.59,1644.36,-0.00 4241.58,1644.13,-0.00 4241.51,1644.03,-0.00 4241.40,1644.00,-0.00 4241.26,1644.01,-0.00 4241.08,1644.06,-0.00 4240.88,1644.12,-0.00 4240.67,1644.19,-0.00 4240.44,1644.24,-0.01"/>
    </edge>
    <edge id=":Tyy_Val_jp5_0" function="internal">
        <lane id=":Tyy_Val_jp5_0_0" index="0" allow="bicycle" speed="7.47" length="8.92" width="1.00" shape="4254.34,1631.79 4252.17,1631.73,-0.00 4250.30,1631.74,-0.00 4248.74,1631.80,-0.00 4247.50,1631.92,-0.00 4246.56,1632.11,-0.00 4245.94,1632.35,-0.00 4245.62,1632.66,-0.00"/>
    </edge>
    <edge id=":Tyy_Val_jp5_1" function="internal">
        <lane id=":Tyy_Val_jp5_1_0" index="0" allow="bicycle" speed="5.58" length="9.13" width="1.00" shape="4254.34,1631.79 4252.06,1631.65 4250.19,1631.41 4248.72,1631.07 4247.65,1630.63 4246.98,1630.09 4246.73,1629.46 4246.87,1628.73"/>
    </edge>
    <edge id=":Tyy_Val_jp5_2" function="internal">
        <lane id=":Tyy_Val_jp5_2_0" index="0" allow="bicycle" speed="8.33" length="4.24" width="1.00" shape="4244.67,1632.33,-0.00 4245.03,1631.63,-0.00 4245.35,1631.12,-0.00 4245.65,1630.72,-0.00 4245.93,1630.35,-0.00 4246.22,1629.95,-0.00 4246.53,1629.43,-0.00 4246.87,1628.73"/>
    </edge>
    <edge id=":Tyy_Val_jp5_3" function="internal">
        <lane id=":Tyy_Val_jp5_3_0" index="0" allow="bicycle" speed="7.93" length="10.08" width="1.00" shape="4244.67,1632.33,-0.00 4245.09,1631.84,-0.00 4245.82,1631.44,-0.00 4246.88,1631.13,-0.00 4248.27,1630.91,-0.00 4249.97,1630.78,-0.00 4252.00,1630.74,-0.00 4254.35,1630.79"/>
    </edge>
    <edge id=":Tyy_Val_jp5_4" function="internal">
        <lane id=":Tyy_Val_jp5_4_0" index="0" disallow="pedestrian tram rail_urban rail rail_electric rail_fast ship" speed="8.33" length="4.27" shape="4251.14,1633.18 4251.40,1628.92"/>
    </edge>
    <edge id=":Tyy_Val_jp5_c0" function="crossing" crossingEdges="-Tyyn13">
        <lane id=":Tyy_Val_jp5_c0_0" index="0" allow="pedestrian" speed="2.78" length="3.20" width="2.00" shape="4249.74,1629.81 4252.93,1630.01"/>
    </edge>
    <edge id=":Tyy_Val_jp5_c1" function="crossing" crossingEdges="-Tyyn_p13">
        <lane id=":Tyy_Val_jp5_c1_0" index="0" allow="pedestrian" speed="2.78" length="1.00" width="2.00" shape="4246.01,1629.44 4246.92,1629.84"/>
    </edge>
    <edge id=":Tyy_Val_jp5_w0" function="walkingarea">
        <lane id=":Tyy_Val_jp5_w0_0" index="0" allow="pedestrian" speed="2.78" length="1.45" width="2.00" shape="4254.34,1630.29 4254.38,1629.29 4253.00,1629.01 4253.00,1629.27 4253.04,1629.50 4253.11,1629.70 4253.23,1629.87 4253.38,1630.01 4253.57,1630.12 4253.80,1630.21 4254.07,1630.26"/>
    </edge>
    <edge id=":Tyy_Val_jp5_w1" function="walkingarea">
        <lane id=":Tyy_Val_jp5_w1_0" index="0" allow="pedestrian" speed="2.78" length="2.65" width="2.00" shape="4249.68,1630.81 4249.80,1628.82 4247.16,1628.81 4245.17,1628.58 4247.33,1628.93 4246.52,1630.76"/>
    </edge>
    <edge id=":Tyy_Val_jp5_w2" function="walkingarea">
        <lane id=":Tyy_Val_jp5_w2_0" index="0" allow="pedestrian" speed="2.78" length="3.44" width="2.00" shape="4246.41,1628.52 4243.27,1631.79,-0.00 4244.17,1632.22,-0.00 4244.50,1631.55,-0.00 4244.76,1631.12,-0.00 4245.00,1630.77,-0.00 4245.23,1630.47,-0.00 4245.45,1630.19,-0.00 4245.67,1629.89,-0.00 4245.90,1629.53,-0.00 4246.14,1629.09,-0.00"/>
    </edge>
    <edge id=":Tyy_Val_jp6_0" function="internal">
        <lane id=":Tyy_Val_jp6_0_0" index="0" allow="tram" speed="13.89" length="4.28" shape="4258.72,1633.43 4258.71,1632.64 4258.75,1632.03 4258.82,1631.53 4258.91,1631.08 4258.99,1630.58 4259.07,1629.98 4259.11,1629.18"/>
    </edge>
    <edge id=":Tyy_Val_jp6_1" function="internal">
        <lane id=":Tyy_Val_jp6_1_0" index="0" allow="bicycle" speed="8.33" length="22.95" width="1.00" shape="4278.57,1633.76 4278.03,1633.46 4276.59,1633.16 4274.24,1632.88 4270.98,1632.60 4266.82,1632.34 4261.75,1632.09 4255.78,1631.84"/>
    </edge>
    <edge id=":Tyy_Val_jp6_2" function="internal">
        <lane id=":Tyy_Val_jp6_2_0" index="0" allow="bicycle" speed="8.33" length="4.87" width="1.00" shape="4278.15,1629.24 4278.10,1630.11 4278.19,1630.77 4278.39,1631.29 4278.67,1631.77 4278.99,1632.28 4279.31,1632.92 4279.61,1633.77"/>
    </edge>
    <edge id=":Tyy_Val_jp6_3" function="internal">
        <lane id=":Tyy_Val_jp6_3_0" index="0" allow="bicycle" speed="8.33" length="1.45" width="1.00" shape="4278.15,1629.24 4277.58,1630.13 4277.23,1630.31"/>
    </edge>
    <edge id=":Tyy_Val_jp6_9" function="internal">
        <lane id=":Tyy_Val_jp6_9_0" index="0" allow="bicycle" speed="8.33" length="21.67" width="1.00" shape="4277.23,1630.31 4276.13,1630.85 4273.81,1631.39 4270.61,1631.76 4266.54,1631.96 4261.60,1631.99 4255.78,1631.84"/>
    </edge>
    <edge id=":Tyy_Val_jp6_4" function="internal">
        <lane id=":Tyy_Val_jp6_4_0" index="0" disallow="pedestrian tram rail_urban rail rail_electric rail_fast ship" speed="8.33" length="4.47" shape="4275.21,1629.23 4274.87,1633.72"/>
        <lane id=":Tyy_Val_jp6_4_1" index="1" disallow="pedestrian tram rail_urban rail rail_electric rail_fast ship" speed="8.33" length="4.47" shape="4272.01,1629.22 4271.66,1633.68"/>
        <lane id=":Tyy_Val_jp6_4_2" index="2" disallow="pedestrian tram rail_urban rail rail_electric rail_fast ship" speed="8.33" length="4.47" shape="4268.81,1629.21 4268.46,1633.64"/>
    </edge>
    <edge id=":Tyy_Val_jp6_7" function="internal">