
<routes xmlns:xsi="http://www.w3.org/2001/XMLSchema-instance" xsi:noNamespaceSchemaLocation="http://sumo.dlr.de/xsd/routes_file.xsd">

<vType id="bike_type" vClass="bicycle"/>

<vType id="ped_type" vClass="pedestrian"/>

<route id="Mech2South_bike" edges="-Mech_jp06 -Mech_jp05 -Mech_jp04 Mech_ylitItam1R Mech_ylitItamR2 Mech_ylitItam23 -Mech_jp02 -Mech_jp021 -Mech_jp022 -Mech_jp01"/>

<route id="Mech2North_bike" edges="Mech_jp04b Mech_jp05b Mech_jp06b"/>

<route id="Baan2Itam_bike" edges="-Baana01.6 -Itam_ylitMech Itam_jp13b"/>

<route id="Itam2Baan_bike" edges="Itam_jp13 Itam_ylitMech Baana01"/>


<flow id="F_Mech2South_bike" from="-Mech_jp06"  to="-Mech_jp01"  route="Mech2South_bike"  begin="0" end="3600" type="bike_type" departPos="100.0" color="0,255,0"   number="400"> </flow>


</routes>

<!---


<flow id="F_Mech2North_bike" from="Mech_jp04b"  to="Mech_jp06b"  route="Mech2North_bike"  begin="30" end="3600" type="bike_type" color="0,255,0"   number="400"> </flow>


-->